version 2
run General-0-20200427-17:16:21-5608
attr configname General
attr datetime 20200427-17:16:21
attr experiment General
attr inifile omnetpp.ini
attr iterationvars ""
attr iterationvarsf ""
attr measurement ""
attr network Networks.Basic
attr processid 5608
attr repetition 0
attr replication #0
attr resultdir results
attr runnumber 0
attr seedset 0
param **.frameCapacity 50
param **.packetLength "1024 bytes"
param **.pattern 4
param **.sendIaTime "exponential(0.5 ms)"
param **.simulationDuration 2000
param **.tp 2

statistic Basic.rack[0].node[0].app 	throughput
field count 226831
field mean 113416
field stddev 65480.613792684
field sum 25726264696
field sqrsum 3.8903514735938e+015
field min 1
field max 226831
statistic Basic.rack[0].node[0].app 	"End-to-End Delay"
field count 226831
field mean 1.5263955471039e-005
field stddev 9.8418283467164e-006
field sum 3.4623382834512
field sqrsum 7.4820090756602e-005
field min 4e-007
field max 0.000112081024
statistic Basic.rack[0].node[0].app 	hops
field count 226831
field mean 4.5860221927338
field stddev 1.4603236842614
field sum 1040252
field sqrsum 5254344
field min 2
field max 11
statistic Basic.rack[0].node[1].app 	throughput
field count 227581
field mean 113791
field stddev 65697.120143631
field sum 25896669571
field sqrsum 3.9290686039817e+015
field min 1
field max 227581
statistic Basic.rack[0].node[1].app 	"End-to-End Delay"
field count 227581
field mean 1.5299603810869e-005
field stddev 9.8511696638781e-006
field sum 3.4818991348813
field sqrsum 7.5357302118921e-005
field min 4e-007
field max 9.7135811e-005
statistic Basic.rack[0].node[1].app 	hops
field count 227581
field mean 4.5880192107425
field stddev 1.4599557053752
field sum 1044146
field sqrsum 5275642
field min 2
field max 10
statistic Basic.rack[0].node[2].app 	throughput
field count 227624
field mean 113812.5
field stddev 65709.533174418
field sum 25906456500
field sqrsum 3.9312961383895e+015
field min 1
field max 227624
statistic Basic.rack[0].node[2].app 	"End-to-End Delay"
field count 227624
field mean 1.5291099810302e-005
field stddev 9.832379425843e-006
field sum 3.4806213032203
field sqrsum 7.5228137235708e-005
field min 4e-007
field max 0.000106304035
statistic Basic.rack[0].node[2].app 	hops
field count 227624
field mean 4.5843935613116
field stddev 1.4617766916278
field sum 1043518
field sqrsum 5270280
field min 2
field max 9
statistic Basic.rack[0].node[3].app 	throughput
field count 227171
field mean 113586
field stddev 65578.763338447
field sum 25803445206
field sqrsum 3.9078715684099e+015
field min 1
field max 227171
statistic Basic.rack[0].node[3].app 	"End-to-End Delay"
field count 227171
field mean 1.5273319403869e-005
field stddev 9.8629168718955e-006
field sum 3.4696552422963
field sqrsum 7.5091598182242e-005
field min 4e-007
field max 0.000100860169
statistic Basic.rack[0].node[3].app 	hops
field count 227171
field mean 4.5861399562444
field stddev 1.4621474784658
field sum 1041838
field sqrsum 5263676
field min 2
field max 9
statistic Basic.rack[0].node[4].app 	throughput
field count 227417
field mean 113709
field stddev 65649.777421557
field sum 25859359653
field sqrsum 3.9205806159241e+015
field min 1
field max 227417
statistic Basic.rack[0].node[4].app 	"End-to-End Delay"
field count 227417
field mean 1.5322780734128e-005
field stddev 9.8759695282695e-006
field sum 3.4846608262132
field sqrsum 7.5575661964896e-005
field min 4e-007
field max 9.8666481e-005
statistic Basic.rack[0].node[4].app 	hops
field count 227417
field mean 4.589907526702
field stddev 1.4611801639077
field sum 1043823
field sqrsum 5276595
field min 2
field max 10
statistic Basic.rack[0].node[5].app 	throughput
field count 227134
field mean 113567.5
field stddev 65568.082358467
field sum 25795040545
field sqrsum 3.9059624244455e+015
field min 1
field max 227134
statistic Basic.rack[0].node[5].app 	"End-to-End Delay"
field count 227134
field mean 1.5287905469055e-005
field stddev 9.8471163884442e-006
field sum 3.4724031208082
field sqrsum 7.5109881264659e-005
field min 4e-007
field max 0.000106159121
statistic Basic.rack[0].node[5].app 	hops
field count 227134
field mean 4.5915670925533
field stddev 1.4630702001707
field sum 1042901
field sqrsum 5274745
field min 2
field max 9
statistic Basic.rack[0].node[6].app 	throughput
field count 227056
field mean 113528.5
field stddev 65545.565697968
field sum 25777327096
field sqrsum 3.9019397798486e+015
field min 1
field max 227056
statistic Basic.rack[0].node[6].app 	"End-to-End Delay"
field count 227056
field mean 1.5271782465789e-005
field stddev 9.8591974232096e-006
field sum 3.4675498395522
field sqrsum 7.5026269705852e-005
field min 4e-007
field max 0.000104394646
statistic Basic.rack[0].node[6].app 	hops
field count 227056
field mean 4.5835080332605
field stddev 1.4622609414062
field sum 1040713
field sqrsum 5255607
field min 2
field max 11
statistic Basic.rack[0].node[7].app 	throughput
field count 227639
field mean 113820
field stddev 65713.863301437
field sum 25909870980
field sqrsum 3.9320733833011e+015
field min 1
field max 227639
statistic Basic.rack[0].node[7].app 	"End-to-End Delay"
field count 227639
field mean 1.5294918398078e-005
field stddev 9.8475355993955e-006
field sum 3.4817199292202
field sqrsum 7.5327579912764e-005
field min 4e-007
field max 0.000105965686
statistic Basic.rack[0].node[7].app 	hops
field count 227639
field mean 4.5924380268759
field stddev 1.4608684936748
field sum 1045418
field sqrsum 5286828
field min 2
field max 9
statistic Basic.rack[0].node[8].app 	throughput
field count 227025
field mean 113513
field stddev 65536.616768796
field sum 25770288825
field sqrsum 3.90034180376e+015
field min 1
field max 227025
statistic Basic.rack[0].node[8].app 	"End-to-End Delay"
field count 227025
field mean 1.5288448987016e-005
field stddev 9.8575145094297e-006
field sum 3.4708601312772
field sqrsum 7.5124124605234e-005
field min 4e-007
field max 9.9022714e-005
statistic Basic.rack[0].node[8].app 	hops
field count 227025
field mean 4.5902257460632
field stddev 1.461558584005
field sum 1042096
field sqrsum 5268414
field min 2
field max 9
statistic Basic.rack[0].node[9].app 	throughput
field count 227081
field mean 113541
field stddev 65552.782576333
field sum 25783003821
field sqrsum 3.9032287881189e+015
field min 1
field max 227081
statistic Basic.rack[0].node[9].app 	"End-to-End Delay"
field count 227081
field mean 1.5293704243972e-005
field stddev 9.8518383612002e-006
field sum 3.4729096534253
field sqrsum 7.5153747037663e-005
field min 4e-007
field max 0.000108664491
statistic Basic.rack[0].node[9].app 	hops
field count 227081
field mean 4.5896442238673
field stddev 1.4611151054602
field sum 1042221
field sqrsum 5268207
field min 2
field max 9
statistic Basic.rack[0].eps.queue[0] 	dropsum
field count 0
field mean nan
field stddev nan
field sum 0
field sqrsum 0
field min nan
field max nan
statistic Basic.rack[0].eps.queue[1] 	dropsum
field count 0
field mean nan
field stddev nan
field sum 0
field sqrsum 0
field min nan
field max nan
statistic Basic.rack[0].eps.queue[2] 	dropsum
field count 0
field mean nan
field stddev nan
field sum 0
field sqrsum 0
field min nan
field max nan
statistic Basic.rack[0].eps.queue[3] 	dropsum
field count 0
field mean nan
field stddev nan
field sum 0
field sqrsum 0
field min nan
field max nan
statistic Basic.rack[1].node[0].app 	throughput
field count 226455
field mean 113228
field stddev 65372.071942076
field sum 25641046740
field sqrsum 3.8710373733534e+015
field min 1
field max 226455
statistic Basic.rack[1].node[0].app 	"End-to-End Delay"
field count 226455
field mean 1.323088872681e-005
field stddev 8.8888895678423e-006
field sum 2.9962009066297
field sqrsum 5.7535065260544e-005
field min 4e-007
field max 0.000100175117
statistic Basic.rack[1].node[0].app 	hops
field count 226455
field mean 4.6355125742421
field stddev 1.4643095264835
field sum 1049735
field sqrsum 5351623
field min 2
field max 9
statistic Basic.rack[1].node[1].app 	throughput
field count 227488
field mean 113744.5
field stddev 65670.273356113
field sum 25875508816
field sqrsum 3.9242537915257e+015
field min 1
field max 227488
statistic Basic.rack[1].node[1].app 	"End-to-End Delay"
field count 227488
field mean 1.3249274580838e-005
field stddev 8.8470412665756e-006
field sum 3.0140509758458
field sqrsum 5.7739428129558e-005
field min 4e-007
field max 8.8930077e-005
statistic Basic.rack[1].node[1].app 	hops
field count 227488
field mean 4.6376292375862
field stddev 1.4636861747112
field sum 1055005
field sqrsum 5380085
field min 2
field max 10
statistic Basic.rack[1].node[2].app 	throughput
field count 226961
field mean 113481
field stddev 65518.141560182
field sum 25755761241
field sqrsum 3.8970441365995e+015
field min 1
field max 226961
statistic Basic.rack[1].node[2].app 	"End-to-End Delay"
field count 226961
field mean 1.3276807422565e-005
field stddev 8.8534983598306e-006
field sum 3.0133174894328
field sqrsum 5.7797366971025e-005
field min 4e-007
field max 0.000104229155
statistic Basic.rack[1].node[2].app 	hops
field count 226961
field mean 4.6440049171444
field stddev 1.4623154651474
field sum 1054008
field sqrsum 5380142
field min 2
field max 9
statistic Basic.rack[1].node[3].app 	throughput
field count 227114
field mean 113557.5
field stddev 65562.308855775
field sum 25790498055
field sqrsum 3.9049307136749e+015
field min 1
field max 227114
statistic Basic.rack[1].node[3].app 	"End-to-End Delay"
field count 227114
field mean 1.3263140815946e-005
field stddev 8.8302761262037e-006
field sum 3.0122449632728
field sqrsum 5.7660687414307e-005
field min 4e-007
field max 0.000101149019
statistic Basic.rack[1].node[3].app 	hops
field count 227114
field mean 4.6407531019664
field stddev 1.4645302319619
field sum 1053980
field sqrsum 5378384
field min 2
field max 10
statistic Basic.rack[1].node[4].app 	throughput
field count 226862
field mean 113431.5
field stddev 65489.562721857
field sum 25733296953
field sqrsum 3.89194672e+015
field min 1
field max 226862
statistic Basic.rack[1].node[4].app 	"End-to-End Delay"
field count 226862
field mean 1.326546080064e-005
field stddev 8.8777515043041e-006
field sum 3.0094289681548
field sqrsum 5.7801391890074e-005
field min 4e-007
field max 9.1148494e-005
statistic Basic.rack[1].node[4].app 	hops
field count 226862
field mean 4.6389434986908
field stddev 1.4647308508401
field sum 1052400
field sqrsum 5368740
field min 2
field max 9
statistic Basic.rack[1].node[5].app 	throughput
field count 227361
field mean 113681
field stddev 65633.61161402
field sum 25846625841
field sqrsum 3.9176850807657e+015
field min 1
field max 227361
statistic Basic.rack[1].node[5].app 	"End-to-End Delay"
field count 227361
field mean 1.3251294060528e-005
field stddev 8.8698750449226e-006
field sum 3.0128274688957
field sqrsum 5.7811338741913e-005
field min 4e-007
field max 9.053037e-005
statistic Basic.rack[1].node[5].app 	hops
field count 227361
field mean 4.6379898047598
field stddev 1.46244481611
field sum 1054498
field sqrsum 5377016
field min 2
field max 9
statistic Basic.rack[1].node[6].app 	throughput
field count 227430
field mean 113715.5
field stddev 65653.530198307
field sum 25862316165
field sqrsum 3.9212529977094e+015
field min 1
field max 227430
statistic Basic.rack[1].node[6].app 	"End-to-End Delay"
field count 227430
field mean 1.3252724182596e-005
field stddev 8.8599476342673e-006
field sum 3.0140670608478
field sqrsum 5.7797473918191e-005
field min 4e-007
field max 9.7845708e-005
statistic Basic.rack[1].node[6].app 	hops
field count 227430
field mean 4.6416787582993
field stddev 1.4611239144595
field sum 1055657
field sqrsum 5385555
field min 2
field max 8
statistic Basic.rack[1].node[7].app 	throughput
field count 227769
field mean 113885
field stddev 65751.391068935
field sum 25939472565
field sqrsum 3.9388137975958e+015
field min 1
field max 227769
statistic Basic.rack[1].node[7].app 	"End-to-End Delay"
field count 227769
field mean 1.3232467668167e-005
field stddev 8.8399382066484e-006
field sum 3.0139459283108
field sqrsum 5.7680760233636e-005
field min 4e-007
field max 8.8434649e-005
statistic Basic.rack[1].node[7].app 	hops
field count 227769
field mean 4.6395734274638
field stddev 1.462218898562
field sum 1056751
field sqrsum 5389861
field min 2
field max 8
statistic Basic.rack[1].node[8].app 	throughput
field count 227416
field mean 113708.5
field stddev 65649.488746423
field sum 25859132236
field sqrsum 3.9205288974322e+015
field min 1
field max 227416
statistic Basic.rack[1].node[8].app 	"End-to-End Delay"
field count 227416
field mean 1.3258674340107e-005
field stddev 8.8277280076238e-006
field sum 3.0152346837298
field sqrsum 5.770018863829e-005
field min 4e-007
field max 0.000103397626
statistic Basic.rack[1].node[8].app 	hops
field count 227416
field mean 4.6418765610159
field stddev 1.4622639395916
field sum 1055637
field sqrsum 5386399
field min 2
field max 9
statistic Basic.rack[1].node[9].app 	throughput
field count 227211
field mean 113606
field stddev 65590.310343831
field sum 25812532866
field sqrsum 3.9099362075221e+015
field min 1
field max 227211
statistic Basic.rack[1].node[9].app 	"End-to-End Delay"
field count 227211
field mean 1.32696066272e-005
field stddev 8.8806555295726e-006
field sum 3.0150005913727
field sqrsum 5.7927025375373e-005
field min 4e-007
field max 0.00010455735
statistic Basic.rack[1].node[9].app 	hops
field count 227211
field mean 4.6359815325842
field stddev 1.4635717094077
field sum 1053346
field sqrsum 5369986
field min 2
field max 10
statistic Basic.rack[1].eps.queue[0] 	dropsum
field count 0
field mean nan
field stddev nan
field sum 0
field sqrsum 0
field min nan
field max nan
statistic Basic.rack[1].eps.queue[1] 	dropsum
field count 0
field mean nan
field stddev nan
field sum 0
field sqrsum 0
field min nan
field max nan
statistic Basic.rack[1].eps.queue[2] 	dropsum
field count 0
field mean nan
field stddev nan
field sum 0
field sqrsum 0
field min nan
field max nan
statistic Basic.rack[1].eps.queue[3] 	dropsum
field count 0
field mean nan
field stddev nan
field sum 0
field sqrsum 0
field min nan
field max nan
statistic Basic.rack[2].node[0].app 	throughput
field count 227334
field mean 113667.5
field stddev 65625.817385386
field sum 25840487445
field sqrsum 3.9162895287102e+015
field min 1
field max 227334
statistic Basic.rack[2].node[0].app 	"End-to-End Delay"
field count 227334
field mean 1.1218151408506e-005
field stddev 8.2254849378231e-006
field sum 2.5502672323013
field sqrsum 4.3990317017683e-005
field min 4e-007
field max 9.0782022e-005
statistic Basic.rack[2].node[0].app 	hops
field count 227334
field mean 4.6393588288597
field stddev 1.3045662646598
field sum 1054684
field sqrsum 5279954
field min 2
field max 8
statistic Basic.rack[2].node[1].app 	throughput
field count 227163
field mean 113582
field stddev 65576.45393737
field sum 25801627866
field sqrsum 3.9074587278254e+015
field min 1
field max 227163
statistic Basic.rack[2].node[1].app 	"End-to-End Delay"
field count 227163
field mean 1.1275116410614e-005
field stddev 8.2610514106302e-006
field sum 2.5612892691844
field sqrsum 4.4381498639377e-005
field min 4e-007
field max 8.255131e-005
statistic Basic.rack[2].node[1].app 	hops
field count 227163
field mean 4.6431064918142
field stddev 1.3001164697938
field sum 1054742
field sqrsum 5281252
field min 2
field max 9
statistic Basic.rack[2].node[2].app 	throughput
field count 227232
field mean 113616.5
field stddev 65596.372521657
field sum 25817304528
field sqrsum 3.9110204341058e+015
field min 1
field max 227232
statistic Basic.rack[2].node[2].app 	"End-to-End Delay"
field count 227232
field mean 1.1275973663852e-005
field stddev 8.2561619094051e-006
field sum 2.5622620475843
field sqrsum 4.4381020851505e-005
field min 4e-007
field max 9.8928518e-005
statistic Basic.rack[2].node[2].app 	hops
field count 227232
field mean 4.6437561611041
field stddev 1.3032215825493
field sum 1055210
field sqrsum 5286064
field min 2
field max 8
statistic Basic.rack[2].node[3].app 	throughput
field count 226722
field mean 113361.5
field stddev 65449.148203013
field sum 25701546003
field sqrsum 3.8847458424434e+015
field min 1
field max 226722
statistic Basic.rack[2].node[3].app 	"End-to-End Delay"
field count 226722
field mean 1.1237310706889e-005
field stddev 8.2454645038523e-006
field sum 2.5477455580873
field sqrsum 4.4044044342974e-005
field min 4e-007
field max 9.0937041e-005
statistic Basic.rack[2].node[3].app 	hops
field count 226722
field mean 4.6376487504521
field stddev 1.3005296312997
field sum 1051457
field sqrsum 5259759
field min 2
field max 8
statistic Basic.rack[2].node[4].app 	throughput
field count 226390
field mean 113195.5
field stddev 65353.308058328
field sum 25626329245
field sqrsum 3.8677049939601e+015
field min 1
field max 226390
statistic Basic.rack[2].node[4].app 	"End-to-End Delay"
field count 226390
field mean 1.126605090069e-005
field stddev 8.2808123292927e-006
field sum 2.5505212634073
field sqrsum 4.4258215567842e-005
field min 4e-007
field max 0.00010250455
statistic Basic.rack[2].node[4].app 	hops
field count 226390
field mean 4.6403330535801
field stddev 1.3020399991371
field sum 1050525
field sqrsum 5258585
field min 2
field max 8
statistic Basic.rack[2].node[5].app 	throughput
field count 227750
field mean 113875.5
field stddev 65745.906241377
field sum 25935145125
field sqrsum 3.9378281798609e+015
field min 1
field max 227750
statistic Basic.rack[2].node[5].app 	"End-to-End Delay"
field count 227750
field mean 1.1262539315097e-005
field stddev 8.2674017609103e-006
field sum 2.5650433290134
field sqrsum 4.4455529972838e-005
field min 4e-007
field max 0.000112808874
statistic Basic.rack[2].node[5].app 	hops
field count 227750
field mean 4.6408913282108
field stddev 1.299916857671
field sum 1056963
field sqrsum 5290097
field min 2
field max 8
statistic Basic.rack[2].node[6].app 	throughput
field count 227949
field mean 113975
field stddev 65803.352593162
field sum 25980487275
field sqrsum 3.9481593893951e+015
field min 1
field max 227949
statistic Basic.rack[2].node[6].app 	"End-to-End Delay"
field count 227949
field mean 1.1236493323851e-005
field stddev 8.2508785903136e-006
field sum 2.5613474166784
field sqrsum 4.4298578576457e-005
field min 4e-007
field max 8.4324434e-005
statistic Basic.rack[2].node[6].app 	hops
field count 227949
field mean 4.6383094464113
field stddev 1.3028931546553
field sum 1057298
field sqrsum 5291024
field min 2
field max 8
statistic Basic.rack[2].node[7].app 	throughput
field count 227461
field mean 113731
field stddev 65662.479127479
field sum 25869366991
field sqrsum 3.9228566798822e+015
field min 1
field max 227461
statistic Basic.rack[2].node[7].app 	"End-to-End Delay"
field count 227461
field mean 1.1250317955775e-005
field stddev 8.2519252657985e-006
field sum 2.5590085725384
field sqrsum 4.427838288154e-005
field min 4e-007
field max 8.8695782e-005
statistic Basic.rack[2].node[7].app 	hops
field count 227461
field mean 4.6410021937827
field stddev 1.3022192184513
field sum 1055647
field sqrsum 5284981
field min 2
field max 8
statistic Basic.rack[2].node[8].app 	throughput
field count 226537
field mean 113269
field stddev 65395.743303113
field sum 25659619453
field sqrsum 3.8752440278893e+015
field min 1
field max 226537
statistic Basic.rack[2].node[8].app 	"End-to-End Delay"
field count 226537
field mean 1.1261109413912e-005
field stddev 8.2441105379221e-006
field sum 2.5510579432993
field sqrsum 4.4124343087806e-005
field min 4e-007
field max 9.0533773e-005
statistic Basic.rack[2].node[8].app 	hops
field count 226537
field mean 4.6447511885476
field stddev 1.3012622216655
field sum 1052208
field sqrsum 5270834
field min 2
field max 8
statistic Basic.rack[2].node[9].app 	throughput
field count 228272
field mean 114136.5
field stddev 65896.594661636
field sum 26054167128
field sqrsum 3.9649665771509e+015
field min 1
field max 228272
statistic Basic.rack[2].node[9].app 	"End-to-End Delay"
field count 228272
field mean 1.1243472573427e-005
field stddev 8.2516193116497e-006
field sum 2.5665699712814
field sqrsum 4.4399953707129e-005
field min 4e-007
field max 0.00010685998
statistic Basic.rack[2].node[9].app 	hops
field count 228272
field mean 4.6379801289689
field stddev 1.3014684934499
field sum 1058721
field sqrsum 5296977
field min 2
field max 8
statistic Basic.rack[2].eps.queue[0] 	dropsum
field count 0
field mean nan
field stddev nan
field sum 0
field sqrsum 0
field min nan
field max nan
statistic Basic.rack[2].eps.queue[1] 	dropsum
field count 0
field mean nan
field stddev nan
field sum 0
field sqrsum 0
field min nan
field max nan
statistic Basic.rack[2].eps.queue[2] 	dropsum
field count 0
field mean nan
field stddev nan
field sum 0
field sqrsum 0
field min nan
field max nan
statistic Basic.rack[2].eps.queue[3] 	dropsum
field count 0
field mean nan
field stddev nan
field sum 0
field sqrsum 0
field min nan
field max nan
statistic Basic.rack[3].node[0].app 	throughput
field count 227105
field mean 113553
field stddev 65559.710779563
field sum 25788454065
field sqrsum 3.9044665031059e+015
field min 1
field max 227105
statistic Basic.rack[3].node[0].app 	"End-to-End Delay"
field count 227105
field mean 1.1952794606212e-005
field stddev 9.2965939247582e-006
field sum 2.7145394190439
field sqrsum 5.2074172001414e-005
field min 4e-007
field max 0.000131802014
statistic Basic.rack[3].node[0].app 	hops
field count 227105
field mean 4.2760925563066
field stddev 1.1474306068615
field sum 971122
field sqrsum 4451612
field min 2
field max 9
statistic Basic.rack[3].node[1].app 	throughput
field count 227226
field mean 113613.5
field stddev 65594.640470849
field sum 25815941151
field sqrsum 3.9107106346318e+015
field min 1
field max 227226
statistic Basic.rack[3].node[1].app 	"End-to-End Delay"
field count 227226
field mean 1.1944014497354e-005
field stddev 9.260122834206e-006
field sum 2.7139906381759
field sqrsum 5.1900458853251e-005
field min 4e-007
field max 0.000119413031
statistic Basic.rack[3].node[1].app 	hops
field count 227226
field mean 4.276702490032
field stddev 1.146323264005
field sum 971778
field sqrsum 4454592
field min 2
field max 9
statistic Basic.rack[3].node[2].app 	throughput
field count 227234
field mean 113617.5
field stddev 65596.949871926
field sum 25817758995
field sqrsum 3.9111237042329e+015
field min 1
field max 227234
statistic Basic.rack[3].node[2].app 	"End-to-End Delay"
field count 227234
field mean 1.1949571827305e-005
field stddev 9.2947355115499e-006
field sum 2.7153490046059
field sqrsum 5.2078395896092e-005
field min 4e-007
field max 0.000140926449
statistic Basic.rack[3].node[2].app 	hops
field count 227234
field mean 4.2773924676765
field stddev 1.1489978680799
field sum 971969
field sqrsum 4457485
field min 2
field max 9
statistic Basic.rack[3].node[3].app 	throughput
field count 227841
field mean 113921
field stddev 65772.175678626
field sum 25955874561
field sqrsum 3.9425502625267e+015
field min 1
field max 227841
statistic Basic.rack[3].node[3].app 	"End-to-End Delay"
field count 227841
field mean 1.192860267537e-005
field stddev 9.2893196591252e-006
field sum 2.717824762159
field sqrsum 5.2080497913825e-005
field min 4e-007
field max 0.000135014839
statistic Basic.rack[3].node[3].app 	hops
field count 227841
field mean 4.2752753016358
field stddev 1.1444710311635
field sum 974083
field sqrsum 4462901
field min 2
field max 9
statistic Basic.rack[3].node[4].app 	throughput
field count 227082
field mean 113541.5
field stddev 65553.071251468
field sum 25783230903
field sqrsum 3.9032803543537e+015
field min 1
field max 227082
statistic Basic.rack[3].node[4].app 	"End-to-End Delay"
field count 227082
field mean 1.1920838465307e-005
field stddev 9.2934061061773e-006
field sum 2.7070078403788
field sqrsum 5.188219807997e-005
field min 4e-007
field max 0.000157824766
statistic Basic.rack[3].node[4].app 	hops
field count 227082
field mean 4.2701358980456
field stddev 1.1471578745589
field sum 969671
field sqrsum 4439459
field min 2
field max 9
statistic Basic.rack[3].node[5].app 	throughput
field count 226830
field mean 113415.5
field stddev 65480.32511755
field sum 25726037865
field sqrsum 3.8903000212913e+015
field min 1
field max 226830
statistic Basic.rack[3].node[5].app 	"End-to-End Delay"
field count 226830
field mean 1.1930396604113e-005
field stddev 9.2750591438706e-006
field sum 2.7061718617109
field sqrsum 5.179905894138e-005
field min 4e-007
field max 0.00015487443
statistic Basic.rack[3].node[5].app 	hops
field count 226830
field mean 4.2695410659966
field stddev 1.1477722751645
field sum 968460
field sqrsum 4433700
field min 2
field max 9
statistic Basic.rack[3].node[6].app 	throughput
field count 227032
field mean 113516.5
field stddev 65538.637494738
field sum 25771878028
field sqrsum 3.9007025989279e+015
field min 1
field max 227032
statistic Basic.rack[3].node[6].app 	"End-to-End Delay"
field count 227032
field mean 1.1948574401489e-005
field stddev 9.2990711650124e-006
field sum 2.7127087435188
field sqrsum 5.2044991374721e-005
field min 4e-007
field max 0.000146507062
statistic Basic.rack[3].node[6].app 	hops
field count 227032
field mean 4.2748907642975
field stddev 1.1460343942589
field sum 970537
field sqrsum 4447121
field min 2
field max 9
statistic Basic.rack[3].node[7].app 	throughput
field count 226702
field mean 113351.5
field stddev 65443.374700321
field sum 25697011753
field sqrsum 3.8837178712897e+015
field min 1
field max 226702
statistic Basic.rack[3].node[7].app 	"End-to-End Delay"
field count 226702
field mean 1.197284950756e-005
field stddev 9.2930228256216e-006
field sum 2.7142689290628
field sqrsum 5.2075493713935e-005
field min 4e-007
field max 0.000160688154
statistic Basic.rack[3].node[7].app 	hops
field count 226702
field mean 4.2744175172694
field stddev 1.1484975951258
field sum 969019
field sqrsum 4441021
field min 2
field max 9
statistic Basic.rack[3].node[8].app 	throughput
field count 227347
field mean 113674
field stddev 65629.570162136
field sum 25843442878
field sqrsum 3.9169614198041e+015
field min 1
field max 227347
statistic Basic.rack[3].node[8].app 	"End-to-End Delay"
field count 227347
field mean 1.1944548445438e-005
field stddev 9.2845411144094e-006
field sum 2.7155572554249
field sqrsum 5.2033945070335e-005
field min 4e-007
field max 0.000151641679
statistic Basic.rack[3].node[8].app 	hops
field count 227347
field mean 4.276990679446
field stddev 1.1480495465023
field sum 972361
field sqrsum 4458425
field min 2
field max 9
statistic Basic.rack[3].node[9].app 	throughput
field count 228042
field mean 114021.5
field stddev 65830.199380679
field sum 26001690903
field sqrsum 3.9529937318316e+015
field min 1
field max 228042
statistic Basic.rack[3].node[9].app 	"End-to-End Delay"
field count 228042
field mean 1.1935609910907e-005
field stddev 9.2748357122063e-006
field sum 2.721820355303
field sqrsum 5.2103260601497e-005
field min 4e-007
field max 0.000137530193
statistic Basic.rack[3].node[9].app 	hops
field count 228042
field mean 4.2772647143947
field stddev 1.1468591355656
field sum 975396
field sqrsum 4471966
field min 2
field max 9
statistic Basic.rack[3].eps.queue[0] 	dropsum
field count 0
field mean nan
field stddev nan
field sum 0
field sqrsum 0
field min nan
field max nan
statistic Basic.rack[3].eps.queue[1] 	dropsum
field count 0
field mean nan
field stddev nan
field sum 0
field sqrsum 0
field min nan
field max nan
statistic Basic.rack[3].eps.queue[2] 	dropsum
field count 0
field mean nan
field stddev nan
field sum 0
field sqrsum 0
field min nan
field max nan
statistic Basic.rack[3].eps.queue[3] 	dropsum
field count 0
field mean nan
field stddev nan
field sum 0
field sqrsum 0
field min nan
field max nan
statistic Basic.rack[4].node[0].app 	throughput
field count 226864
field mean 113432.5
field stddev 65490.140072126
field sum 25733750680
field sqrsum 3.8920496540952e+015
field min 1
field max 226864
statistic Basic.rack[4].node[0].app 	"End-to-End Delay"
field count 226864
field mean 1.4780611293589e-005
field stddev 1.0631947994561e-005
field sum 3.3531886005088
field sqrsum 7.5206389270728e-005
field min 4e-007
field max 0.000130773645
statistic Basic.rack[4].node[0].app 	hops
field count 226864
field mean 4.4842945553283
field stddev 1.3775673273107
field sum 1017325
field sqrsum 4992501
field min 2
field max 10
statistic Basic.rack[4].node[1].app 	throughput
field count 227128
field mean 113564.5
field stddev 65566.350307659
field sum 25793677756
field sqrsum 3.9056528921358e+015
field min 1
field max 227128
statistic Basic.rack[4].node[1].app 	"End-to-End Delay"
field count 227128
field mean 1.4779766023184e-005
field stddev 1.0625546464214e-005
field sum 3.3568986973138
field sqrsum 7.5257323843552e-005
field min 4e-007
field max 0.000134380926
statistic Basic.rack[4].node[1].app 	hops
field count 227128
field mean 4.4874299954211
field stddev 1.3756660710798
field sum 1019221
field sqrsum 5003511
field min 2
field max 8
statistic Basic.rack[4].node[2].app 	throughput
field count 226773
field mean 113387
field stddev 65463.870634878
field sum 25713110151
field sqrsum 3.8873679898852e+015
field min 1
field max 226773
statistic Basic.rack[4].node[2].app 	"End-to-End Delay"
field count 226773
field mean 1.4784578103142e-005
field stddev 1.0621529493989e-005
field sum 3.3527431301837
field sqrsum 7.5152604173037e-005
field min 4e-007
field max 0.000127359393
statistic Basic.rack[4].node[2].app 	hops
field count 226773
field mean 4.4884399818321
field stddev 1.3775186600727
field sum 1017857
field sqrsum 4998903
field min 2
field max 10
statistic Basic.rack[4].node[3].app 	throughput
field count 226783
field mean 113392
field stddev 65466.757386224
field sum 25715377936
field sqrsum 3.8878822747659e+015
field min 1
field max 226783
statistic Basic.rack[4].node[3].app 	"End-to-End Delay"
field count 226783
field mean 1.4810738453609e-005
field stddev 1.0591837882296e-005
field sum 3.3588236987248
field sqrsum 7.5188658288655e-005
field min 4e-007
field max 0.000156430532
statistic Basic.rack[4].node[3].app 	hops
field count 226783
field mean 4.489952950618
field stddev 1.3746714739611
field sum 1018245
field sqrsum 5000427
field min 2
field max 9
statistic Basic.rack[4].node[4].app 	throughput
field count 227302
field mean 113651.5
field stddev 65616.579781079
field sum 25833213253
field sqrsum 3.9146359702934e+015
field min 1
field max 227302
statistic Basic.rack[4].node[4].app 	"End-to-End Delay"
field count 227302
field mean 1.4750521001468e-005
field stddev 1.0575371612359e-005
field sum 3.3528229246757
field sqrsum 7.4876884384404e-005
field min 4e-007
field max 0.000145560223
statistic Basic.rack[4].node[4].app 	hops
field count 227302
field mean 4.4900836772224
field stddev 1.3746035049237
field sum 1020605
field sqrsum 5012095
field min 2
field max 8
statistic Basic.rack[4].node[5].app 	throughput
field count 227709
field mean 113855
field stddev 65734.070560859
field sum 25925808195
field sqrsum 3.9357018807862e+015
field min 1
field max 227709
statistic Basic.rack[4].node[5].app 	"End-to-End Delay"
field count 227709
field mean 1.4807050097663e-005
field stddev 1.0618684002948e-005
field sum 3.3716985706888
field sqrsum 7.560045535664e-005
field min 4e-007
field max 0.000137815347
statistic Basic.rack[4].node[5].app 	hops
field count 227709
field mean 4.49200514692
field stddev 1.3780631276459
field sum 1022870
field sqrsum 5027168
field min 2
field max 8
statistic Basic.rack[4].node[6].app 	throughput
field count 227375
field mean 113688
field stddev 65637.653065904
field sum 25849809000
field sqrsum 3.918408830853e+015
field min 1
field max 227375
statistic Basic.rack[4].node[6].app 	"End-to-End Delay"
field count 227375
field mean 1.4779906757202e-005
field stddev 1.0611285603164e-005
field sum 3.3605812989187
field sqrsum 7.5271250165423e-005
field min 4e-007
field max 0.000172105679
statistic Basic.rack[4].node[6].app 	hops
field count 227375
field mean 4.486513468939
field stddev 1.3794666312858
field sum 1020121
field sqrsum 5009463
field min 2
field max 10
statistic Basic.rack[4].node[7].app 	throughput
field count 227229
field mean 113615
field stddev 65595.506496253
field sum 25816622835
field sqrsum 3.9108655323238e+015
field min 1
field max 227229
statistic Basic.rack[4].node[7].app 	"End-to-End Delay"
field count 227229
field mean 1.4777905175104e-005
field stddev 1.0553271712331e-005
field sum 3.3579686150337
field sqrsum 7.4930474936319e-005
field min 4e-007
field max 0.000143439263
statistic Basic.rack[4].node[7].app 	hops
field count 227229
field mean 4.4884543786224
field stddev 1.3758383455643
field sum 1019907
field sqrsum 5007933
field min 2
field max 10
statistic Basic.rack[4].node[8].app 	throughput
field count 227341
field mean 113671
field stddev 65627.838111328
field sum 25842078811
field sqrsum 3.916651306674e+015
field min 1
field max 227341
statistic Basic.rack[4].node[8].app 	"End-to-End Delay"
field count 227341
field mean 1.4815988591555e-005
field stddev 1.061262879618e-005
field sum 3.3682816623927
field sqrsum 7.5509247187915e-005
field min 4e-007
field max 0.000139821219
statistic Basic.rack[4].node[8].app 	hops
field count 227341
field mean 4.4940068003572
field stddev 1.3774585085414
field sum 1021672
field sqrsum 5022754
field min 2
field max 9
statistic Basic.rack[4].node[9].app 	throughput
field count 226345
field mean 113173
field stddev 65340.317677271
field sum 25616142685
field sqrsum 3.8653990827384e+015
field min 1
field max 226345
statistic Basic.rack[4].node[9].app 	"End-to-End Delay"
field count 226345
field mean 1.4821999440075e-005
field stddev 1.0682298441291e-005
field sum 3.3548854632637
field sqrsum 7.5554563811476e-005
field min 4e-007
field max 0.000167908772
statistic Basic.rack[4].node[9].app 	hops
field count 226345
field mean 4.4895182133469
field stddev 1.3779493130645
field sum 1016180
field sqrsum 4991928
field min 2
field max 10
statistic Basic.rack[4].eps.queue[0] 	dropsum
field count 0
field mean nan
field stddev nan
field sum 0
field sqrsum 0
field min nan
field max nan
statistic Basic.rack[4].eps.queue[1] 	dropsum
field count 0
field mean nan
field stddev nan
field sum 0
field sqrsum 0
field min nan
field max nan
statistic Basic.rack[4].eps.queue[2] 	dropsum
field count 0
field mean nan
field stddev nan
field sum 0
field sqrsum 0
field min nan
field max nan
statistic Basic.rack[4].eps.queue[3] 	dropsum
field count 0
field mean nan
field stddev nan
field sum 0
field sqrsum 0
field min nan
field max nan
statistic Basic.rack[5].node[0].app 	throughput
field count 227628
field mean 113814.5
field stddev 65710.687874957
field sum 25907367006
field sqrsum 3.9315033936835e+015
field min 1
field max 227628
statistic Basic.rack[5].node[0].app 	"End-to-End Delay"
field count 227628
field mean 1.4024380219861e-005
field stddev 9.3949545472645e-006
field sum 3.1923416206866
field sqrsum 6.4862148746932e-005
field min 4e-007
field max 0.000162519093
statistic Basic.rack[5].node[0].app 	hops
field count 227628
field mean 4.7748607376948
field stddev 1.5854043720226
field sum 1086892
field sqrsum 5761900
field min 2
field max 9
statistic Basic.rack[5].node[1].app 	throughput
field count 227385
field mean 113693
field stddev 65640.53981725
field sum 25852082805
field sqrsum 3.9189258497709e+015
field min 1
field max 227385
statistic Basic.rack[5].node[1].app 	"End-to-End Delay"
field count 227385
field mean 1.4012258300554e-005
field stddev 9.3996797050682e-006
field sum 3.1861773536715
field sqrsum 6.4735821131425e-005
field min 4e-007
field max 0.000164180896
statistic Basic.rack[5].node[1].app 	hops
field count 227385
field mean 4.7718407106889
field stddev 1.5882005745311
field sum 1085045
field sqrsum 5751211
field min 2
field max 9
statistic Basic.rack[5].node[2].app 	throughput
field count 227293
field mean 113647
field stddev 65613.981704867
field sum 25831167571
field sqrsum 3.9141709908661e+015
field min 1
field max 227293
statistic Basic.rack[5].node[2].app 	"End-to-End Delay"
field count 227293
field mean 1.3986132392148e-005
field stddev 9.3613357524062e-006
field sum 3.1789499898085
field sqrsum 6.437986053547e-005
field min 4e-007
field max 0.000153376776
statistic Basic.rack[5].node[2].app 	hops
field count 227293
field mean 4.7741681442015
field stddev 1.5871489561345
field sum 1085135
field sqrsum 5753175
field min 2
field max 9
statistic Basic.rack[5].node[3].app 	throughput
field count 228028
field mean 114014.5
field stddev 65826.157928795
field sum 25998498406
field sqrsum 3.9522657291817e+015
field min 1
field max 228028
statistic Basic.rack[5].node[3].app 	"End-to-End Delay"
field count 228028
field mean 1.4014343603327e-005
field stddev 9.3590591085131e-006
field sum 3.1956627431796
field sqrsum 6.4758453833364e-005
field min 4e-007
field max 0.00011960085
statistic Basic.rack[5].node[3].app 	hops
field count 228028
field mean 4.7738874173347
field stddev 1.5844776795315
field sum 1088580
field sqrsum 5769236
field min 2
field max 9
statistic Basic.rack[5].node[4].app 	throughput
field count 226771
field mean 113386
field stddev 65463.293284608
field sum 25712656606
field sqrsum 3.8872651383517e+015
field min 1
field max 226771
statistic Basic.rack[5].node[4].app 	"End-to-End Delay"
field count 226771
field mean 1.4057881392041e-005
field stddev 9.398390859023e-006
field sum 3.1879198211545
field sqrsum 6.4845936308202e-005
field min 4e-007
field max 0.000159834942
statistic Basic.rack[5].node[4].app 	hops
field count 226771
field mean 4.7822605183202
field stddev 1.5868690989246
field sum 1084478
field sqrsum 5757298
field min 2
field max 9
statistic Basic.rack[5].node[5].app 	throughput
field count 227006
field mean 113503.5
field stddev 65531.131941238
field sum 25765975521
field sqrsum 3.8993626147386e+015
field min 1
field max 227006
statistic Basic.rack[5].node[5].app 	"End-to-End Delay"
field count 227006
field mean 1.4065850713851e-005
field stddev 9.4164550852941e-006
field sum 3.1930325071485
field sqrsum 6.5041167104911e-005
field min 4e-007
field max 0.000138838248
statistic Basic.rack[5].node[5].app 	hops
field count 227006
field mean 4.7847545879845
field stddev 1.5857405693739
field sum 1086168
field sqrsum 5767868
field min 2
field max 9
statistic Basic.rack[5].node[6].app 	throughput
field count 226320
field mean 113160.5
field stddev 65333.100798906
field sum 25610484360
field sqrsum 3.8641184170649e+015
field min 1
field max 226320
statistic Basic.rack[5].node[6].app 	"End-to-End Delay"
field count 226320
field mean 1.4025182756131e-005
field stddev 9.3902448979981e-006
field sum 3.1741793613675
field sqrsum 6.4474508040206e-005
field min 4e-007
field max 0.00012881822
statistic Basic.rack[5].node[6].app 	hops
field count 226320
field mean 4.7731000353482
field stddev 1.5843001034771
field sum 1080248
field sqrsum 5724194
field min 2
field max 9
statistic Basic.rack[5].node[7].app 	throughput
field count 227221
field mean 113611
field stddev 65593.197095176
field sum 25814805031
field sqrsum 3.9104524809009e+015
field min 1
field max 227221
statistic Basic.rack[5].node[7].app 	"End-to-End Delay"
field count 227221
field mean 1.4003544079335e-005
field stddev 9.3837823422627e-006
field sum 3.1818992892505
field sqrsum 6.4565808362313e-005
field min 4e-007
field max 0.000145840114
statistic Basic.rack[5].node[7].app 	hops
field count 227221
field mean 4.7733748201091
field stddev 1.5849005900162
field sum 1084611
field sqrsum 5748011
field min 2
field max 9
statistic Basic.rack[5].node[8].app 	throughput
field count 227444
field mean 113722.5
field stddev 65657.571650191
field sum 25865500290
field sqrsum 3.9219771871393e+015
field min 1
field max 227444
statistic Basic.rack[5].node[8].app 	"End-to-End Delay"
field count 227444
field mean 1.4034484731426e-005
field stddev 9.4299451868747e-006
field sum 3.1920593452545
field sqrsum 6.5024019049154e-005
field min 4e-007
field max 0.000126326653
statistic Basic.rack[5].node[8].app 	hops
field count 227444
field mean 4.7736937443942
field stddev 1.5839088720435
field sum 1085748
field sqrsum 5753630
field min 2
field max 10
statistic Basic.rack[5].node[9].app 	throughput
field count 226565
field mean 113283
field stddev 65403.826206882
field sum 25665962895
field sqrsum 3.8766811441914e+015
field min 1
field max 226565
statistic Basic.rack[5].node[9].app 	"End-to-End Delay"
field count 226565
field mean 1.4023906688361e-005
field stddev 9.3872167011176e-006
field sum 3.1773264188485
field sqrsum 6.452331205567e-005
field min 4e-007
field max 0.000110912066
statistic Basic.rack[5].node[9].app 	hops
field count 226565
field mean 4.7721889965352
field stddev 1.5860578614454
field sum 1081211
field sqrsum 5729683
field min 2
field max 9
statistic Basic.rack[5].eps.queue[0] 	dropsum
field count 0
field mean nan
field stddev nan
field sum 0
field sqrsum 0
field min nan
field max nan
statistic Basic.rack[5].eps.queue[1] 	dropsum
field count 0
field mean nan
field stddev nan
field sum 0
field sqrsum 0
field min nan
field max nan
statistic Basic.rack[5].eps.queue[2] 	dropsum
field count 0
field mean nan
field stddev nan
field sum 0
field sqrsum 0
field min nan
field max nan
statistic Basic.rack[5].eps.queue[3] 	dropsum
field count 0
field mean nan
field stddev nan
field sum 0
field sqrsum 0
field min nan
field max nan
statistic Basic.rack[6].node[0].app 	throughput
field count 227607
field mean 113804
field stddev 65704.62569713
field sum 25902587028
field sqrsum 3.9304153846503e+015
field min 1
field max 227607
statistic Basic.rack[6].node[0].app 	"End-to-End Delay"
field count 227607
field mean 1.1263313010884e-005
field stddev 9.3634045576831e-006
field sum 2.5636088844682
field sqrsum 4.8829708645025e-005
field min 4e-007
field max 0.000121176827
statistic Basic.rack[6].node[0].app 	hops
field count 227607
field mean 4.8155548818797
field stddev 1.4932749513393
field sum 1096054
field sqrsum 5785640
field min 2
field max 9
statistic Basic.rack[6].node[1].app 	throughput
field count 227293
field mean 113647
field stddev 65613.981704867
field sum 25831167571
field sqrsum 3.9141709908661e+015
field min 1
field max 227293
statistic Basic.rack[6].node[1].app 	"End-to-End Delay"
field count 227293
field mean 1.1209713496144e-005
field stddev 9.3599449384841e-006
field sum 2.5478894096792
field sqrsum 4.8473837224666e-005
field min 4e-007
field max 0.00015340859
statistic Basic.rack[6].node[1].app 	hops
field count 227293
field mean 4.8064832616931
field stddev 1.4922633462956
field sum 1092480
field sqrsum 5757132
field min 2
field max 8
statistic Basic.rack[6].node[2].app 	throughput
field count 226317
field mean 113159
field stddev 65332.234773502
field sum 25609805403
field sqrsum 3.8639647561956e+015
field min 1
field max 226317
statistic Basic.rack[6].node[2].app 	"End-to-End Delay"
field count 226317
field mean 1.1246572274867e-005
field stddev 9.3360510255067e-006
field sum 2.5452904975312
field sqrsum 4.8351914502918e-005
field min 4e-007
field max 0.000160167872
statistic Basic.rack[6].node[2].app 	hops
field count 226317
field mean 4.810875895315
field stddev 1.4947032181739
field sum 1088783
field sqrsum 5743621
field min 2
field max 8
statistic Basic.rack[6].node[3].app 	throughput
field count 228019
field mean 114010
field stddev 65823.559852584
field sum 25996446190
field sqrsum 3.9517977746805e+015
field min 1
field max 228019
statistic Basic.rack[6].node[3].app 	"End-to-End Delay"
field count 228019
field mean 1.1226786625107e-005
field stddev 9.2971097477186e-006
field sum 2.5599206594702
field sqrsum 4.8448703796306e-005
field min 4e-007
field max 0.000119396501
statistic Basic.rack[6].node[3].app 	hops
field count 228019
field mean 4.8079502146751
field stddev 1.4918034670991
field sum 1096304
field sqrsum 5778424
field min 2
field max 8
statistic Basic.rack[6].node[4].app 	throughput
field count 226959
field mean 113480
field stddev 65517.564209912
field sum 25755307320
field sqrsum 3.8969411144624e+015
field min 1
field max 226959
statistic Basic.rack[6].node[4].app 	"End-to-End Delay"
field count 226959
field mean 1.1244764715407e-005
field stddev 9.3392879545695e-006
field sum 2.5521005550441
field sqrsum 4.8493568921082e-005
field min 4e-007
field max 0.000110841274
statistic Basic.rack[6].node[4].app 	hops
field count 226959
field mean 4.8070003833291
field stddev 1.4900171245421
field sum 1090992
field sqrsum 5748280
field min 2
field max 9
statistic Basic.rack[6].node[5].app 	throughput
field count 228485
field mean 114243
field stddev 65958.082465305
field sum 26102811855
field sqrsum 3.9760760120637e+015
field min 1
field max 228485
statistic Basic.rack[6].node[5].app 	"End-to-End Delay"
field count 228485
field mean 1.11988745477e-005
field stddev 9.2991579624594e-006
field sum 2.5587748510312
field sqrsum 4.8413401381348e-005
field min 4e-007
field max 0.000130595661
statistic Basic.rack[6].node[5].app 	hops
field count 228485
field mean 4.8108584808631
field stddev 1.4936741258864
field sum 1099209
field sqrsum 5797901
field min 2
field max 8
statistic Basic.rack[6].node[6].app 	throughput
field count 228136
field mean 114068.5
field stddev 65857.334843331
field sum 26023131316
field sqrsum 3.9578840649818e+015
field min 1
field max 228136
statistic Basic.rack[6].node[6].app 	"End-to-End Delay"
field count 228136
field mean 1.125864473078e-005
field stddev 9.3513451564514e-006
field sum 2.5685021743012
field sqrsum 4.8867724525885e-005
field min 4e-007
field max 0.000139404744
statistic Basic.rack[6].node[6].app 	hops
field count 228136
field mean 4.8098590314549
field stddev 1.4925947423464
field sum 1097302
field sqrsum 5786116
field min 2
field max 10
statistic Basic.rack[6].node[7].app 	throughput
field count 227476
field mean 113738.5
field stddev 65666.809254498
field sum 25872779026
field sqrsum 3.9236328120719e+015
field min 1
field max 227476
statistic Basic.rack[6].node[7].app 	"End-to-End Delay"
field count 227476
field mean 1.1220943493881e-005
field stddev 9.3406721002246e-006
field sum 2.5524953422142
field sqrsum 4.8488180126589e-005
field min 4e-007
field max 0.000149712806
statistic Basic.rack[6].node[7].app 	hops
field count 227476
field mean 4.8090875520934
field stddev 1.4942628374766
field sum 1093952
field sqrsum 5768822
field min 2
field max 9
statistic Basic.rack[6].node[8].app 	throughput
field count 226975
field mean 113488
field stddev 65522.183012066
field sum 25758938800
field sqrsum 3.8977653423996e+015
field min 1
field max 226975
statistic Basic.rack[6].node[8].app 	"End-to-End Delay"
field count 226975
field mean 1.1263673584166e-005
field stddev 9.3142654082886e-006
field sum 2.5565723117661
field sqrsum 4.848764797181e-005
field min 4e-007
field max 0.000130259586
statistic Basic.rack[6].node[8].app 	hops
field count 226975
field mean 4.8109086903844
field stddev 1.4903731336542
field sum 1091956
field sqrsum 5757458
field min 2
field max 10
statistic Basic.rack[6].node[9].app 	throughput
field count 227758
field mean 113879.5
field stddev 65748.215642454
field sum 25936967161
field sqrsum 3.9382431567591e+015
field min 1
field max 227758
statistic Basic.rack[6].node[9].app 	"End-to-End Delay"
field count 227758
field mean 1.1219343339677e-005
field stddev 9.3401144594123e-006
field sum 2.5552952003582
field sqrsum 4.8537739706888e-005
field min 4e-007
field max 0.000142709558
statistic Basic.rack[6].node[9].app 	hops
field count 227758
field mean 4.8063778220743
field stddev 1.4932425133883
field sum 1094691
field sqrsum 5769345
field min 2
field max 8
statistic Basic.rack[6].eps.queue[0] 	dropsum
field count 0
field mean nan
field stddev nan
field sum 0
field sqrsum 0
field min nan
field max nan
statistic Basic.rack[6].eps.queue[1] 	dropsum
field count 0
field mean nan
field stddev nan
field sum 0
field sqrsum 0
field min nan
field max nan
statistic Basic.rack[6].eps.queue[2] 	dropsum
field count 0
field mean nan
field stddev nan
field sum 0
field sqrsum 0
field min nan
field max nan
statistic Basic.rack[6].eps.queue[3] 	dropsum
field count 0
field mean nan
field stddev nan
field sum 0
field sqrsum 0
field min nan
field max nan
statistic Basic.rack[7].node[0].app 	throughput
field count 227055
field mean 113528
field stddev 65545.277022834
field sum 25777100040
field sqrsum 3.9018882254215e+015
field min 1
field max 227055
statistic Basic.rack[7].node[0].app 	"End-to-End Delay"
field count 227055
field mean 1.0954533636233e-005
field stddev 8.6469459597394e-006
field sum 2.487281634775
field sqrsum 4.4223763989106e-005
field min 4e-007
field max 9.7728898e-005
statistic Basic.rack[7].node[0].app 	hops
field count 227055
field mean 4.360621875757
field stddev 1.3004262268725
field sum 990101
field sqrsum 4701429
field min 2
field max 10
statistic Basic.rack[7].node[1].app 	throughput
field count 227399
field mean 113700
field stddev 65644.581269134
field sum 25855266300
field sqrsum 3.9196497526579e+015
field min 1
field max 227399
statistic Basic.rack[7].node[1].app 	"End-to-End Delay"
field count 227399
field mean 1.0983589433357e-005
field stddev 8.6438187253097e-006
field sum 2.497657253556
field sqrsum 4.442342031738e-005
field min 4e-007
field max 9.6915435e-005
statistic Basic.rack[7].node[1].app 	hops
field count 227399
field mean 4.3616374742193
field stddev 1.2994717787621
field sum 991832
field sqrsum 4710002
field min 2
field max 8
statistic Basic.rack[7].node[2].app 	throughput
field count 227999
field mean 114000
field stddev 65817.786349892
field sum 25991886000
field sqrsum 3.950758008038e+015
field min 1
field max 227999
statistic Basic.rack[7].node[2].app 	"End-to-End Delay"
field count 227999
field mean 1.0967036383796e-005
field stddev 8.6753246828338e-006
field sum 2.500473328469
field sqrsum 4.4582198351903e-005
field min 4e-007
field max 0.000104668069
statistic Basic.rack[7].node[2].app 	hops
field count 227999
field mean 4.3614533397076
field stddev 1.3018048507191
field sum 994407
field sqrsum 4723447
field min 2
field max 9
statistic Basic.rack[7].node[3].app 	throughput
field count 228115
field mean 114058
field stddev 65851.272665505
field sum 26018340670
field sqrsum 3.9567911940716e+015
field min 1
field max 228115
statistic Basic.rack[7].node[3].app 	"End-to-End Delay"
field count 228115
field mean 1.0983333832944e-005
field stddev 8.6637694714251e-006
field sum 2.5054631973021
field sqrsum 4.4640781176402e-005
field min 4e-007
field max 9.9822575e-005
statistic Basic.rack[7].node[3].app 	hops
field count 228115
field mean 4.3643469302764
field stddev 1.2984856601172
field sum 995573
field sqrsum 4729641
field min 2
field max 9
statistic Basic.rack[7].node[4].app 	throughput
field count 227396
field mean 113698.5
field stddev 65643.715243731
field sum 25854584106
field sqrsum 3.9194946231067e+015
field min 1
field max 227396
statistic Basic.rack[7].node[4].app 	"End-to-End Delay"
field count 227396
field mean 1.0949730659101e-005
field stddev 8.6322510714251e-006
field sum 2.489924952957
field sqrsum 4.4208518514034e-005
field min 4e-007
field max 0.000106683785
statistic Basic.rack[7].node[4].app 	hops
field count 227396
field mean 4.3623678516773
field stddev 1.2993367634205
field sum 991985
field sqrsum 4711309
field min 2
field max 8
statistic Basic.rack[7].node[5].app 	throughput
field count 227182
field mean 113591.5
field stddev 65581.938764927
field sum 25805944153
field sqrsum 3.9084392716926e+015
field min 1
field max 227182
statistic Basic.rack[7].node[5].app 	"End-to-End Delay"
field count 227182
field mean 1.0951326359883e-005
field stddev 8.6422544015231e-006
field sum 2.487944225091
field sqrsum 4.4214111182651e-005
field min 4e-007
field max 9.7718832e-005
statistic Basic.rack[7].node[5].app 	hops
field count 227182
field mean 4.3617496104445
field stddev 1.3015522938603
field sum 990911
field sqrsum 4706959
field min 2
field max 11
statistic Basic.rack[7].node[6].app 	throughput
field count 227499
field mean 113750
field stddev 65673.448782594
field sum 25878011250
field sqrsum 3.9248230802462e+015
field min 1
field max 227499
statistic Basic.rack[7].node[6].app 	"End-to-End Delay"
field count 227499
field mean 1.0977714563677e-005
field stddev 8.635790945592e-006
field sum 2.497419085522
field sqrsum 4.4382046108703e-005
field min 4e-007
field max 9.8015093e-005
statistic Basic.rack[7].node[6].app 	hops
field count 227499
field mean 4.3622521417677
field stddev 1.3014268820427
field sum 992408
field sqrsum 4714450
field min 2
field max 8
statistic Basic.rack[7].node[7].app 	throughput
field count 226617
field mean 113309
field stddev 65418.837313881
field sum 25677745653
field sqrsum 3.8793510170125e+015
field min 1
field max 226617
statistic Basic.rack[7].node[7].app 	"End-to-End Delay"
field count 226617
field mean 1.0955460605616e-005
field stddev 8.6827839701737e-006
field sum 2.4826936160629
field sqrsum 4.4283799469706e-005
field min 4e-007
field max 9.5648049e-005
statistic Basic.rack[7].node[7].app 	hops
field count 226617
field mean 4.3625897439292
field stddev 1.3022965452421
field sum 988637
field sqrsum 4697353
field min 2
field max 9
statistic Basic.rack[7].node[8].app 	throughput
field count 227812
field mean 113906.5
field stddev 65763.804099722
field sum 25949267578
field sqrsum 3.9410450134088e+015
field min 1
field max 227812
statistic Basic.rack[7].node[8].app 	"End-to-End Delay"
field count 227812
field mean 1.0969307202724e-005
field stddev 8.6452466613403e-006
field sum 2.498939812467
field sqrsum 4.4438298651765e-005
field min 4e-007
field max 0.000100145251
statistic Basic.rack[7].node[8].app 	hops
field count 227812
field mean 4.3611969518726
field stddev 1.3010553031141
field sum 993533
field sqrsum 4718619
field min 2
field max 8
statistic Basic.rack[7].node[9].app 	throughput
field count 227702
field mean 113851.5
field stddev 65732.049834917
field sum 25924214253
field sqrsum 3.9353389306292e+015
field min 1
field max 227702
statistic Basic.rack[7].node[9].app 	"End-to-End Delay"
field count 227702
field mean 1.0984745153503e-005
field stddev 8.6823896951888e-006
field sum 2.501248440943
field sqrsum 4.4640564012761e-005
field min 4e-007
field max 9.3862506e-005
statistic Basic.rack[7].node[9].app 	hops
field count 227702
field mean 4.3635453355702
field stddev 1.3005049960136
field sum 993588
field sqrsum 4720680
field min 2
field max 9
statistic Basic.rack[7].eps.queue[0] 	dropsum
field count 0
field mean nan
field stddev nan
field sum 0
field sqrsum 0
field min nan
field max nan
statistic Basic.rack[7].eps.queue[1] 	dropsum
field count 0
field mean nan
field stddev nan
field sum 0
field sqrsum 0
field min nan
field max nan
statistic Basic.rack[7].eps.queue[2] 	dropsum
field count 0
field mean nan
field stddev nan
field sum 0
field sqrsum 0
field min nan
field max nan
statistic Basic.rack[7].eps.queue[3] 	dropsum
field count 0
field mean nan
field stddev nan
field sum 0
field sqrsum 0
field min nan
field max nan
statistic Basic.rack[8].node[0].app 	throughput
field count 226942
field mean 113471.5
field stddev 65512.656732624
field sum 25751449153
field sqrsum 3.8960654996031e+015
field min 1
field max 226942
statistic Basic.rack[8].node[0].app 	"End-to-End Delay"
field count 226942
field mean 1.5367949068415e-005
field stddev 9.902278901661e-006
field sum 3.4876330974842
field sqrsum 7.5850496489243e-005
field min 4e-007
field max 0.000113489082
statistic Basic.rack[8].node[0].app 	hops
field count 226942
field mean 4.5895338897163
field stddev 1.4640549640241
field sum 1041558
field sqrsum 5266704
field min 2
field max 9
statistic Basic.rack[8].node[1].app 	throughput
field count 228184
field mean 114092.5
field stddev 65871.191249792
field sum 26034083020
field sqrsum 3.9603828112515e+015
field min 1
field max 228184
statistic Basic.rack[8].node[1].app 	"End-to-End Delay"
field count 228184
field mean 1.5308884851555e-005
field stddev 9.8389360909851e-006
field sum 3.4932425809672
field sqrsum 7.5566826939746e-005
field min 4e-007
field max 0.000117706995
statistic Basic.rack[8].node[1].app 	hops
field count 228184
field mean 4.5943142376328
field stddev 1.464300143119
field sum 1048349
field sqrsum 5305709
field min 2
field max 9
statistic Basic.rack[8].node[2].app 	throughput
field count 227024
field mean 113512.5
field stddev 65536.328093661
field sum 25770061800
field sqrsum 3.9002902634094e+015
field min 1
field max 227024
statistic Basic.rack[8].node[2].app 	"End-to-End Delay"
field count 227024
field mean 1.5336873969083e-005
field stddev 9.8885599921261e-006
field sum 3.4818384759572
field sqrsum 7.559964835865e-005
field min 4e-007
field max 0.00011214366
statistic Basic.rack[8].node[2].app 	hops
field count 227024
field mean 4.5917171752766
field stddev 1.4654416604079
field sum 1042430
field sqrsum 5274080
field min 2
field max 9
statistic Basic.rack[8].node[3].app 	throughput
field count 228116
field mean 114058.5
field stddev 65851.561340639
field sum 26018568786
field sqrsum 3.956843230981e+015
field min 1
field max 228116
statistic Basic.rack[8].node[3].app 	"End-to-End Delay"
field count 228116
field mean 1.5373323659889e-005
field stddev 9.9129275677358e-006
field sum 3.5069010999992
field sqrsum 7.6328704574403e-005
field min 4e-007
field max 0.000122174295
statistic Basic.rack[8].node[3].app 	hops
field count 228116
field mean 4.5937461642322
field stddev 1.4652724592298
field sum 1047907
field sqrsum 5303587
field min 2
field max 9
statistic Basic.rack[8].node[4].app 	throughput
field count 226873
field mean 113437
field stddev 65492.738148337
field sum 25735792501
field sqrsum 3.8925128799837e+015
field min 1
field max 226873
statistic Basic.rack[8].node[4].app 	"End-to-End Delay"
field count 226873
field mean 1.5332302314212e-005
field stddev 9.8618809497065e-006
field sum 3.4784854229321
field sqrsum 7.5398011204526e-005
field min 4e-007
field max 0.000111032595
statistic Basic.rack[8].node[4].app 	hops
field count 226873
field mean 4.5924988870425
field stddev 1.4653079947604
field sum 1041914
field sqrsum 5272112
field min 2
field max 10
statistic Basic.rack[8].node[5].app 	throughput
field count 226882
field mean 113441.5
field stddev 65495.336224549
field sum 25737834403
field sqrsum 3.8929761426258e+015
field min 1
field max 226882
statistic Basic.rack[8].node[5].app 	"End-to-End Delay"
field count 226882
field mean 1.5301902924499e-005
field stddev 9.8179175941456e-006
field sum 3.4717263393162
field sqrsum 7.4993420671435e-005
field min 4e-007
field max 0.000103258383
statistic Basic.rack[8].node[5].app 	hops
field count 226882
field mean 4.593017515713
field stddev 1.4636572249122
field sum 1042073
field sqrsum 5272305
field min 2
field max 9
statistic Basic.rack[8].node[6].app 	throughput
field count 227536
field mean 113768.5
field stddev 65684.129762574
field sum 25886429416
field sqrsum 3.9267383645425e+015
field min 1
field max 227536
statistic Basic.rack[8].node[6].app 	"End-to-End Delay"
field count 227536
field mean 1.5348391935426e-005
field stddev 9.8659369226841e-006
field sum 3.4923117074192
field sqrsum 7.5748877465987e-005
field min 4e-007
field max 0.00010802193
statistic Basic.rack[8].node[6].app 	hops
field count 227536
field mean 4.5957606708389
field stddev 1.4642110484899
field sum 1045701
field sqrsum 5293607
field min 2
field max 10
statistic Basic.rack[8].node[7].app 	throughput
field count 227990
field mean 113995.5
field stddev 65815.18827368
field sum 25989834045
field sqrsum 3.9502901725577e+015
field min 1
field max 227990
statistic Basic.rack[8].node[7].app 	"End-to-End Delay"
field count 227990
field mean 1.5347880787943e-005
field stddev 9.8239483589226e-006
field sum 3.4991633408432
field sqrsum 7.570795139303e-005
field min 4e-007
field max 0.000120450534
statistic Basic.rack[8].node[7].app 	hops
field count 227990
field mean 4.5931795254178
field stddev 1.4642877133245
field sum 1047199
field sqrsum 5298813
field min 2
field max 10
statistic Basic.rack[8].node[8].app 	throughput
field count 227053
field mean 113527
field stddev 65544.699672564
field sum 25776645931
field sqrsum 3.9017851179295e+015
field min 1
field max 227053
statistic Basic.rack[8].node[8].app 	"End-to-End Delay"
field count 227053
field mean 1.5318921201046e-005
field stddev 9.848974377112e-006
field sum 3.4782070154612
field sqrsum 7.5306944565973e-005
field min 4e-007
field max 9.6003625e-005
statistic Basic.rack[8].node[8].app 	hops
field count 227053
field mean 4.5883384055705
field stddev 1.4632503574493
field sum 1041796
field sqrsum 5266254
field min 2
field max 9
statistic Basic.rack[8].node[9].app 	throughput
field count 227474
field mean 113737.5
field stddev 65666.231904229
field sum 25872324075
field sqrsum 3.9235293218657e+015
field min 1
field max 227474
statistic Basic.rack[8].node[9].app 	"End-to-End Delay"
field count 227474
field mean 1.5365178724611e-005
field stddev 9.8818854788132e-006
field sum 3.4951786652022
field sqrsum 7.591716106067e-005
field min 4e-007
field max 0.000111705608
statistic Basic.rack[8].node[9].app 	hops
field count 227474
field mean 4.6017127232123
field stddev 1.4652894455068
field sum 1046770
field sqrsum 5305336
field min 2
field max 9
statistic Basic.rack[8].eps.queue[0] 	dropsum
field count 0
field mean nan
field stddev nan
field sum 0
field sqrsum 0
field min nan
field max nan
statistic Basic.rack[8].eps.queue[1] 	dropsum
field count 0
field mean nan
field stddev nan
field sum 0
field sqrsum 0
field min nan
field max nan
statistic Basic.rack[8].eps.queue[2] 	dropsum
field count 0
field mean nan
field stddev nan
field sum 0
field sqrsum 0
field min nan
field max nan
statistic Basic.rack[8].eps.queue[3] 	dropsum
field count 0
field mean nan
field stddev nan
field sum 0
field sqrsum 0
field min nan
field max nan
statistic Basic.rack[9].node[0].app 	throughput
field count 227160
field mean 113580.5
field stddev 65575.587911966
field sum 25800946380
field sqrsum 3.9073039201027e+015
field min 1
field max 227160
statistic Basic.rack[9].node[0].app 	"End-to-End Delay"
field count 227160
field mean 1.3367748955383e-005
field stddev 8.8494806484718e-006
field sum 3.0366178527049
field sqrsum 5.8382317803049e-005
field min 4e-007
field max 0.000106112889
statistic Basic.rack[9].node[0].app 	hops
field count 227160
field mean 4.6468788519105
field stddev 1.4588255003445
field sum 1055585
field sqrsum 5388609
field min 2
field max 9
statistic Basic.rack[9].node[1].app 	throughput
field count 226231
field mean 113116
field stddev 65307.408711927
field sum 25590345796
field sqrsum 3.8595615432985e+015
field min 1
field max 226231
statistic Basic.rack[9].node[1].app 	"End-to-End Delay"
field count 226231
field mean 1.3344606456913e-005
field stddev 8.8580883345557e-006
field sum 3.0189636633539
field sqrsum 5.8038183853906e-005
field min 4e-007
field max 9.8420275e-005
statistic Basic.rack[9].node[1].app 	hops
field count 226231
field mean 4.6446817633304
field stddev 1.4618702017845
field sum 1050771
field sqrsum 5363965
field min 2
field max 8
statistic Basic.rack[9].node[2].app 	throughput
field count 227923
field mean 113962
field stddev 65795.847039662
field sum 25974560926
field sqrsum 3.9468085581448e+015
field min 1
field max 227923
statistic Basic.rack[9].node[2].app 	"End-to-End Delay"
field count 227923
field mean 1.3334870260096e-005
field stddev 8.8375239292002e-006
field sum 3.0393236342919
field sqrsum 5.8330111456464e-005
field min 4e-007
field max 9.4655842e-005
statistic Basic.rack[9].node[2].app 	hops
field count 227923
field mean 4.6442263395971
field stddev 1.4616205614298
field sum 1058526
field sqrsum 5402952
field min 2
field max 9
statistic Basic.rack[9].node[3].app 	throughput
field count 228166
field mean 114083.5
field stddev 65865.995097369
field sum 26029975861
field sqrsum 3.9594456581926e+015
field min 1
field max 228166
statistic Basic.rack[9].node[3].app 	"End-to-End Delay"
field count 228166
field mean 1.3342128279555e-005
field stddev 8.8187072831207e-006
field sum 3.0442200410329
field sqrsum 5.8360674659489e-005
field min 4e-007
field max 0.000111397304
statistic Basic.rack[9].node[3].app 	hops
field count 228166
field mean 4.6473926877799
field stddev 1.4625106975404
field sum 1060377
field sqrsum 5416019
field min 2
field max 8
statistic Basic.rack[9].node[4].app 	throughput
field count 227280
field mean 113640.5
field stddev 65610.228928118
field sum 25828212840
field sqrsum 3.9134994189211e+015
field min 1
field max 227280
statistic Basic.rack[9].node[4].app 	"End-to-End Delay"
field count 227280
field mean 1.3324581262785e-005
field stddev 8.8408017870903e-006
field sum 3.0284108294059
field sqrsum 5.8116381977255e-005
field min 4e-007
field max 0.000113774292
statistic Basic.rack[9].node[4].app 	hops
field count 227280
field mean 4.6435322069694
field stddev 1.4611684776052
field sum 1055382
field sqrsum 5385944
field min 2
field max 9
statistic Basic.rack[9].node[5].app 	throughput
field count 226284
field mean 113142.5
field stddev 65322.70849406
field sum 25602337470
field sqrsum 3.8622747554868e+015
field min 1
field max 226284
statistic Basic.rack[9].node[5].app 	"End-to-End Delay"
field count 226284
field mean 1.3316439972512e-005
field stddev 8.8246025908549e-006
field sum 3.0132973027398
field sqrsum 5.7747866943501e-005
field min 4e-007
field max 9.6791381e-005
statistic Basic.rack[9].node[5].app 	hops
field count 226284
field mean 4.6463028760319
field stddev 1.4621877851952
field sum 1051384
field sqrsum 5368840
field min 2
field max 9
statistic Basic.rack[9].node[6].app 	throughput
field count 226138
field mean 113069.5
field stddev 65280.56192441
field sum 25569310591
field sqrsum 3.8548036953886e+015
field min 1
field max 226138
statistic Basic.rack[9].node[6].app 	"End-to-End Delay"
field count 226138
field mean 1.332796409078e-005
field stddev 8.8548303277032e-006
field sum 3.0139591435609
field sqrsum 5.7900893685141e-005
field min 4e-007
field max 0.000105156465
statistic Basic.rack[9].node[6].app 	hops
field count 226138
field mean 4.642554546339
field stddev 1.4599172194441
field sum 1049858
field sqrsum 5356002
field min 2
field max 9
statistic Basic.rack[9].node[7].app 	throughput
field count 227107
field mean 113554
field stddev 65560.288129833
field sum 25788908278
field sqrsum 3.9045696578306e+015
field min 1
field max 227107
statistic Basic.rack[9].node[7].app 	"End-to-End Delay"
field count 227107
field mean 1.3336991572918e-005
field stddev 8.8322920554289e-006
field sum 3.0289241451508
field sqrsum 5.8113134723671e-005
field min 4e-007
field max 9.4841227e-005
statistic Basic.rack[9].node[7].app 	hops
field count 227107
field mean 4.6434632133752
field stddev 1.4642332592866
field sum 1054563
field sqrsum 5383735
field min 2
field max 9
statistic Basic.rack[9].node[8].app 	throughput
field count 227246
field mean 113623.5
field stddev 65600.413973541
field sum 25820485881
field sqrsum 3.9117433631711e+015
field min 1
field max 227246
statistic Basic.rack[9].node[8].app 	"End-to-End Delay"
field count 227246
field mean 1.3308965823671e-005
field stddev 8.8222605561424e-006
field sum 3.0244092475659
field sqrsum 5.7938756081317e-005
field min 4e-007
field max 9.7776999e-005
statistic Basic.rack[9].node[8].app 	hops
field count 227246
field mean 4.6420795085502
field stddev 1.4640043274699
field sum 1054894
field sqrsum 5383958
field min 2
field max 9
statistic Basic.rack[9].node[9].app 	throughput
field count 227092
field mean 113546.5
field stddev 65555.958002814
field sum 25785501778
field sqrsum 3.9037960416803e+015
field min 1
field max 227092
statistic Basic.rack[9].node[9].app 	"End-to-End Delay"
field count 227092
field mean 1.332606802916e-005
field stddev 8.8479287821882e-006
field sum 3.0262434408779
field sqrsum 5.8105936505488e-005
field min 4e-007
field max 0.000113049663
statistic Basic.rack[9].node[9].app 	hops
field count 227092
field mean 4.6399212653902
field stddev 1.4606148949071
field sum 1053689
field sqrsum 5373509
field min 2
field max 9
statistic Basic.rack[9].eps.queue[0] 	dropsum
field count 0
field mean nan
field stddev nan
field sum 0
field sqrsum 0
field min nan
field max nan
statistic Basic.rack[9].eps.queue[1] 	dropsum
field count 0
field mean nan
field stddev nan
field sum 0
field sqrsum 0
field min nan
field max nan
statistic Basic.rack[9].eps.queue[2] 	dropsum
field count 0
field mean nan
field stddev nan
field sum 0
field sqrsum 0
field min nan
field max nan
statistic Basic.rack[9].eps.queue[3] 	dropsum
field count 0
field mean nan
field stddev nan
field sum 0
field sqrsum 0
field min nan
field max nan
statistic Basic.rack[10].node[0].app 	throughput
field count 228205
field mean 114103
field stddev 65877.253427618
field sum 26038875115
field sqrsum 3.9614763433708e+015
field min 1
field max 228205
statistic Basic.rack[10].node[0].app 	"End-to-End Delay"
field count 228205
field mean 1.1138723262774e-005
field stddev 8.2333364457378e-006
field sum 2.5419123421813
field sqrsum 4.3783111873456e-005
field min 4e-007
field max 0.000102150664
statistic Basic.rack[10].node[0].app 	hops
field count 228205
field mean 4.6305996801122
field stddev 1.2993562909888
field sum 1056726
field sqrsum 5278558
field min 2
field max 9
statistic Basic.rack[10].node[1].app 	throughput
field count 227313
field mean 113657
field stddev 65619.755207559
field sum 25835713641
field sqrsum 3.915204328489e+015
field min 1
field max 227313
statistic Basic.rack[10].node[1].app 	"End-to-End Delay"
field count 227313
field mean 1.1149214898353e-005
field stddev 8.2510994869907e-006
field sum 2.5343614861893
field sqrsum 4.3731687903108e-005
field min 4e-007
field max 0.000118489373
statistic Basic.rack[10].node[1].app 	hops
field count 227313
field mean 4.627913933651
field stddev 1.2947911529581
field sum 1051985
field sqrsum 5249581
field min 2
field max 8
statistic Basic.rack[10].node[2].app 	throughput
field count 227383
field mean 113692
field stddev 65639.962466981
field sum 25851628036
field sqrsum 3.9188224423492e+015
field min 1
field max 227383
statistic Basic.rack[10].node[2].app 	"End-to-End Delay"
field count 227383
field mean 1.1171119320434e-005
field stddev 8.2795236351055e-006
field sum 2.5401226244383
field sqrsum 4.3963165360285e-005
field min 4e-007
field max 0.000103592511
statistic Basic.rack[10].node[2].app 	hops
field count 227383
field mean 4.6332795327707
field stddev 1.3012461476582
field sum 1053529
field sqrsum 5266307
field min 2
field max 8
statistic Basic.rack[10].node[3].app 	throughput
field count 227700
field mean 113850.5
field stddev 65731.472484648
field sum 25923758850
field sqrsum 3.935235234683e+015
field min 1
field max 227700
statistic Basic.rack[10].node[3].app 	"End-to-End Delay"
field count 227700
field mean 1.1139481019914e-005
field stddev 8.2462898218455e-006
field sum 2.5364598282343
field sqrsum 4.3738673172645e-005
field min 4e-007
field max 0.00010140513
statistic Basic.rack[10].node[3].app 	hops
field count 227700
field mean 4.6300351339482
field stddev 1.2976693977656
field sum 1054259
field sqrsum 5264689
field min 2
field max 8
statistic Basic.rack[10].node[4].app 	throughput
field count 228101
field mean 114051
field stddev 65847.231213621
field sum 26015147151
field sqrsum 3.9560627252426e+015
field min 1
field max 228101
statistic Basic.rack[10].node[4].app 	"End-to-End Delay"
field count 228101
field mean 1.1142157803383e-005
field stddev 8.267744497795e-006
field sum 2.5415373371094
field sqrsum 4.3910122223596e-005
field min 4e-007
field max 9.3619457e-005
statistic Basic.rack[10].node[4].app 	hops
field count 228101
field mean 4.6287039513198
field stddev 1.2982786697702
field sum 1055812
field sqrsum 5271510
field min 2
field max 8
statistic Basic.rack[10].node[5].app 	throughput
field count 226816
field mean 113408.5
field stddev 65476.283665665
field sum 25722862336
field sqrsum 3.8895797366889e+015
field min 1
field max 226816
statistic Basic.rack[10].node[5].app 	"End-to-End Delay"
field count 226816
field mean 1.1143690455723e-005
field stddev 8.237074982692e-006
field sum 2.5275672944052
field sqrsum 4.3555690164472e-005
field min 4e-007
field max 9.147428e-005
statistic Basic.rack[10].node[5].app 	hops
field count 226816
field mean 4.6289856094808
field stddev 1.2999339448439
field sum 1049928
field sqrsum 5243380
field min 2
field max 10
statistic Basic.rack[10].node[6].app 	throughput
field count 226426
field mean 113213.5
field stddev 65363.700363173
field sum 25634479951
field sqrsum 3.8695503830834e+015
field min 1
field max 226426
statistic Basic.rack[10].node[6].app 	"End-to-End Delay"
field count 226426
field mean 1.1154347630693e-005
field stddev 8.265651823413e-006
field sum 2.5256343166273
field sqrsum 4.3641385595588e-005
field min 4e-007
field max 9.3837235e-005
statistic Basic.rack[10].node[6].app 	hops
field count 226426
field mean 4.6319857260209
field stddev 1.2969556195613
field sum 1048802
field sqrsum 5238904
field min 2
field max 8
statistic Basic.rack[10].node[7].app 	throughput
field count 227903
field mean 113952
field stddev 65790.073536971
field sum 25970002656
field sqrsum 3.9457696668745e+015
field min 1
field max 227903
statistic Basic.rack[10].node[7].app 	"End-to-End Delay"
field count 227903
field mean 1.1176685349176e-005
field stddev 8.28121202283e-006
field sum 2.5472001211334
field sqrsum 4.4098425330271e-005
field min 4e-007
field max 0.000113867603
statistic Basic.rack[10].node[7].app 	hops
field count 227903
field mean 4.6339100406752
field stddev 1.2966518700144
field sum 1056082
field sqrsum 5276962
field min 2
field max 8
statistic Basic.rack[10].node[8].app 	throughput
field count 227763
field mean 113882
field stddev 65749.659018127
field sum 25938105966
field sqrsum 3.9385025321247e+015
field min 1
field max 227763
statistic Basic.rack[10].node[8].app 	"End-to-End Delay"
field count 227763
field mean 1.1138148775702e-005
field stddev 8.2337869728812e-006
field sum 2.5368581796003
field sqrsum 4.3697085082814e-005
field min 4e-007
field max 9.2863787e-005
statistic Basic.rack[10].node[8].app 	hops
field count 227763
field mean 4.630299917019
field stddev 1.2978772847488
field sum 1054611
field sqrsum 5266827
field min 2
field max 8
statistic Basic.rack[10].node[9].app 	throughput
field count 227421
field mean 113711
field stddev 65650.932122096
field sum 25860269331
field sqrsum 3.92078749444e+015
field min 1
field max 227421
statistic Basic.rack[10].node[9].app 	"End-to-End Delay"
field count 227421
field mean 1.1166775687656e-005
field stddev 8.2726410583101e-006
field sum 2.5395592936624
field sqrsum 4.3922538293741e-005
field min 4e-007
field max 9.4644884e-005
statistic Basic.rack[10].node[9].app 	hops
field count 227421
field mean 4.6320656403762
field stddev 1.2975910460355
field sum 1053429
field sqrsum 5262469
field min 2
field max 8
statistic Basic.rack[10].eps.queue[0] 	dropsum
field count 0
field mean nan
field stddev nan
field sum 0
field sqrsum 0
field min nan
field max nan
statistic Basic.rack[10].eps.queue[1] 	dropsum
field count 0
field mean nan
field stddev nan
field sum 0
field sqrsum 0
field min nan
field max nan
statistic Basic.rack[10].eps.queue[2] 	dropsum
field count 0
field mean nan
field stddev nan
field sum 0
field sqrsum 0
field min nan
field max nan
statistic Basic.rack[10].eps.queue[3] 	dropsum
field count 0
field mean nan
field stddev nan
field sum 0
field sqrsum 0
field min nan
field max nan
statistic Basic.rack[11].node[0].app 	throughput
field count 226903
field mean 113452
field stddev 65501.398402375
field sum 25742599156
field sqrsum 3.894057231729e+015
field min 1
field max 226903
statistic Basic.rack[11].node[0].app 	"End-to-End Delay"
field count 226903
field mean 1.2007500143991e-005
field stddev 9.3244948907597e-006
field sum 2.7245378051719
field sqrsum 5.2443155887514e-005
field min 4e-007
field max 0.000132936618
statistic Basic.rack[11].node[0].app 	hops
field count 226903
field mean 4.2813757420572
field stddev 1.1529025347569
field sum 971457
field sqrsum 4460767
field min 2
field max 8
statistic Basic.rack[11].node[1].app 	throughput
field count 227617
field mean 113809
field stddev 65707.512448476
field sum 25904863153
field sqrsum 3.930933459152e+015
field min 1
field max 227617
statistic Basic.rack[11].node[1].app 	"End-to-End Delay"
field count 227617
field mean 1.2006160592143e-005
field stddev 9.3052775526174e-006
field sum 2.7328062555019
field sqrsum 5.2519368301207e-005
field min 4e-007
field max 0.000110046606
statistic Basic.rack[11].node[1].app 	hops
field count 227617
field mean 4.2805018957284
field stddev 1.1531467597368
field sum 974315
field sqrsum 4473229
field min 2
field max 8
statistic Basic.rack[11].node[2].app 	throughput
field count 226937
field mean 113469
field stddev 65511.213356951
field sum 25750314453
field sqrsum 3.8958079907851e+015
field min 1
field max 226937
[...]
field count 227038
field mean 113519.5
field stddev 65540.369545546
field sum 25773240241
field sqrsum 3.9010118696375e+015
field min 1
field max 227038
statistic Basic.rack[13].node[2].app 	"End-to-End Delay"
field count 227038
field mean 1.4099295399592e-005
field stddev 9.3733078149969e-006
field sum 3.2010758289326
field sqrsum 6.5080134650485e-005
field min 4e-007
field max 0.000129484223
statistic Basic.rack[13].node[2].app 	hops
field count 227038
field mean 4.7816136505783
field stddev 1.583390112566
field sum 1085608
field sqrsum 5760168
field min 2
field max 9
statistic Basic.rack[13].node[3].app 	throughput
field count 227934
field mean 113967.5
field stddev 65799.022466143
field sum 25977068145
field sqrsum 3.9473800260643e+015
field min 1
field max 227934
statistic Basic.rack[13].node[3].app 	"End-to-End Delay"
field count 227934
field mean 1.4061602514853e-005
field stddev 9.3460766830394e-006
field sum 3.2051173076206
field sqrsum 6.4978839255508e-005
field min 4e-007
field max 0.000125706564
statistic Basic.rack[13].node[3].app 	hops
field count 227934
field mean 4.7784270885432
field stddev 1.5825410929958
field sum 1089166
field sqrsum 5775344
field min 2
field max 9
statistic Basic.rack[13].node[4].app 	throughput
field count 227592
field mean 113796.5
field stddev 65700.295570111
field sum 25899173028
field sqrsum 3.9296383582501e+015
field min 1
field max 227592
statistic Basic.rack[13].node[4].app 	"End-to-End Delay"
field count 227592
field mean 1.4080809087897e-005
field stddev 9.3207326456042e-006
field sum 3.2046795019326
field sqrsum 6.4896688954866e-005
field min 4e-007
field max 0.000137103137
statistic Basic.rack[13].node[4].app 	hops
field count 227592
field mean 4.7777997469155
field stddev 1.5843682565726
field sum 1087389
field sqrsum 5766631
field min 2
field max 9
statistic Basic.rack[13].node[5].app 	throughput
field count 227558
field mean 113779.5
field stddev 65690.480615535
field sum 25891435461
field sqrsum 3.927877477568e+015
field min 1
field max 227558
statistic Basic.rack[13].node[5].app 	"End-to-End Delay"
field count 227558
field mean 1.4109509122723e-005
field stddev 9.368128594497e-006
field sum 3.2107316769487
field sqrsum 6.5272667401115e-005
field min 4e-007
field max 0.000119345585
statistic Basic.rack[13].node[5].app 	hops
field count 227558
field mean 4.7805790172176
field stddev 1.5856468533844
field sum 1087859
field sqrsum 5772737
field min 2
field max 10
statistic Basic.rack[13].node[6].app 	throughput
field count 226938
field mean 113469.5
field stddev 65511.502032086
field sum 25750541391
field sqrsum 3.895859491641e+015
field min 1
field max 226938
statistic Basic.rack[13].node[6].app 	"End-to-End Delay"
field count 226938
field mean 1.406954349108e-005
field stddev 9.3345399651053e-006
field sum 3.1929140607786
field sqrsum 6.4696689276068e-005
field min 4e-007
field max 0.000105512092
statistic Basic.rack[13].node[6].app 	hops
field count 226938
field mean 4.775634754867
field stddev 1.585417228989
field sum 1083773
field sqrsum 5746121
field min 2
field max 9
statistic Basic.rack[13].node[7].app 	throughput
field count 227507
field mean 113754
field stddev 65675.758183671
field sum 25879831278
field sqrsum 3.9252371429864e+015
field min 1
field max 227507
statistic Basic.rack[13].node[7].app 	"End-to-End Delay"
field count 227507
field mean 1.4091594967894e-005
field stddev 9.3725931686799e-006
field sum 3.2059364963606
field sqrsum 6.5162137538038e-005
field min 4e-007
field max 0.000130425344
statistic Basic.rack[13].node[7].app 	hops
field count 227507
field mean 4.7808155353462
field stddev 1.5849942964421
field sum 1087669
field sqrsum 5771487
field min 2
field max 9
statistic Basic.rack[13].node[8].app 	throughput
field count 226776
field mean 113388.5
field stddev 65464.736660281
field sum 25713790476
field sqrsum 3.8875222705871e+015
field min 1
field max 226776
statistic Basic.rack[13].node[8].app 	"End-to-End Delay"
field count 226776
field mean 1.4088332064225e-005
field stddev 9.3544707948767e-006
field sum 3.1948955921967
field sqrsum 6.4854951249979e-005
field min 4e-007
field max 0.000116102785
statistic Basic.rack[13].node[8].app 	hops
field count 226776
field mean 4.773789995414
field stddev 1.5850651400083
field sum 1082581
field sqrsum 5737771
field min 2
field max 10
statistic Basic.rack[13].node[9].app 	throughput
field count 227471
field mean 113736
field stddev 65665.365878825
field sum 25871641656
field sqrsum 3.9233740899685e+015
field min 1
field max 227471
statistic Basic.rack[13].node[9].app 	"End-to-End Delay"
field count 227471
field mean 1.4066076683017e-005
field stddev 9.2792048760125e-006
field sum 3.1996245291626
field sqrsum 6.4592159687076e-005
field min 4e-007
field max 0.000117154676
statistic Basic.rack[13].node[9].app 	hops
field count 227471
field mean 4.7808555815906
field stddev 1.5859026237039
field sum 1087506
field sqrsum 5771316
field min 2
field max 9
statistic Basic.rack[13].eps.queue[0] 	dropsum
field count 0
field mean nan
field stddev nan
field sum 0
field sqrsum 0
field min nan
field max nan
statistic Basic.rack[13].eps.queue[1] 	dropsum
field count 0
field mean nan
field stddev nan
field sum 0
field sqrsum 0
field min nan
field max nan
statistic Basic.rack[13].eps.queue[2] 	dropsum
field count 0
field mean nan
field stddev nan
field sum 0
field sqrsum 0
field min nan
field max nan
statistic Basic.rack[13].eps.queue[3] 	dropsum
field count 0
field mean nan
field stddev nan
field sum 0
field sqrsum 0
field min nan
field max nan
statistic Basic.rack[14].node[0].app 	throughput
field count 226223
field mean 113112
field stddev 65305.09931085
field sum 25588535976
field sqrsum 3.8591521122444e+015
field min 1
field max 226223
statistic Basic.rack[14].node[0].app 	"End-to-End Delay"
field count 226223
field mean 1.1113024893358e-005
field stddev 9.3344909050014e-006
field sum 2.51402183045
field sqrsum 4.7649725471132e-005
field min 4e-007
field max 0.000115606365
statistic Basic.rack[14].node[0].app 	hops
field count 226223
field mean 4.7957855744111
field stddev 1.4866114568501
field sum 1084917
field sqrsum 5702983
field min 2
field max 11
statistic Basic.rack[14].node[1].app 	throughput
field count 227334
field mean 113667.5
field stddev 65625.817385386
field sum 25840487445
field sqrsum 3.9162895287102e+015
field min 1
field max 227334
statistic Basic.rack[14].node[1].app 	"End-to-End Delay"
field count 227334
field mean 1.1114660067883e-005
field stddev 9.3370070405291e-006
field sum 2.5267401318721
field sqrsum 4.7902680493695e-005
field min 4e-007
field max 0.000121859321
statistic Basic.rack[14].node[1].app 	hops
field count 227334
field mean 4.7965856405113
field stddev 1.4896612165842
field sum 1090427
field sqrsum 5734799
field min 2
field max 8
statistic Basic.rack[14].node[2].app 	throughput
field count 227135
field mean 113568
field stddev 65568.371033601
field sum 25795267680
field sqrsum 3.9060140147538e+015
field min 1
field max 227135
statistic Basic.rack[14].node[2].app 	"End-to-End Delay"
field count 227135
field mean 1.1092215182689e-005
field stddev 9.3039256295389e-006
field sum 2.51943029552
field sqrsum 4.7607470713236e-005
field min 4e-007
field max 0.000122961524
statistic Basic.rack[14].node[2].app 	hops
field count 227135
field mean 4.7937438087481
field stddev 1.491448808871
field sum 1088827
field sqrsum 5724799
field min 2
field max 10
statistic Basic.rack[14].node[3].app 	throughput
field count 227446
field mean 113723.5
field stddev 65658.14900046
field sum 25865955181
field sqrsum 3.9220806500502e+015
field min 1
field max 227446
statistic Basic.rack[14].node[3].app 	"End-to-End Delay"
field count 227446
field mean 1.1132057233559e-005
field stddev 9.3178298308004e-006
field sum 2.5319418895441
field sqrsum 4.7932941070984e-005
field min 4e-007
field max 0.000144524627
statistic Basic.rack[14].node[3].app 	hops
field count 227446
field mean 4.8019573876876
field stddev 1.488530853843
field sum 1092186
field sqrsum 5748586
field min 2
field max 8
statistic Basic.rack[14].node[4].app 	throughput
field count 227007
field mean 113504
field stddev 65531.420616373
field sum 25766202528
field sqrsum 3.8994141469166e+015
field min 1
field max 227007
statistic Basic.rack[14].node[4].app 	"End-to-End Delay"
field count 227007
field mean 1.1137427177114e-005
field stddev 9.3409141446446e-006
field sum 2.5282739311951
field sqrsum 4.7965348000623e-005
field min 4e-007
field max 0.000116692078
statistic Basic.rack[14].node[4].app 	hops
field count 227007
field mean 4.7959974802539
field stddev 1.4909053313773
field sum 1088725
field sqrsum 5726111
field min 2
field max 10
statistic Basic.rack[14].node[5].app 	throughput
field count 228356
field mean 114178.5
field stddev 65920.843372942
field sum 26073345546
field sqrsum 3.9693452881168e+015
field min 1
field max 228356
statistic Basic.rack[14].node[5].app 	"End-to-End Delay"
field count 228356
field mean 1.1097545899596e-005
field stddev 9.3492301163575e-006
field sum 2.5341911914481
field sqrsum 4.8083380601527e-005
field min 4e-007
field max 0.000123441311
statistic Basic.rack[14].node[5].app 	hops
field count 228356
field mean 4.790822224947
field stddev 1.4925404867513
field sum 1094013
field sqrsum 5749923
field min 2
field max 9
statistic Basic.rack[14].node[6].app 	throughput
field count 228039
field mean 114020
field stddev 65829.333355276
field sum 26001006780
field sqrsum 3.9528377237385e+015
field min 1
field max 228039
statistic Basic.rack[14].node[6].app 	"End-to-End Delay"
field count 228039
field mean 1.1141805517228e-005
field stddev 9.3883954907123e-006
field sum 2.5407661883432
field sqrsum 4.8408441265051e-005
field min 4e-007
field max 0.000116010384
statistic Basic.rack[14].node[6].app 	hops
field count 228039
field mean 4.8002490802012
field stddev 1.4884083724898
field sum 1094644
field sqrsum 5759750
field min 2
field max 9
statistic Basic.rack[14].node[7].app 	throughput
field count 228010
field mean 114005.5
field stddev 65820.961776372
field sum 25994394055
field sqrsum 3.9513298571184e+015
field min 1
field max 228010
statistic Basic.rack[14].node[7].app 	"End-to-End Delay"
field count 228010
field mean 1.1112798688045e-005
field stddev 9.3005121552224e-006
field sum 2.5338292288612
field sqrsum 4.7880604633628e-005
field min 4e-007
field max 0.0001376013
statistic Basic.rack[14].node[7].app 	hops
field count 228010
field mean 4.7905881320995
field stddev 1.4868504119213
field sum 1092302
field sqrsum 5736834
field min 2
field max 8
statistic Basic.rack[14].node[8].app 	throughput
field count 227472
field mean 113736.5
field stddev 65665.65455396
field sum 25871869128
field sqrsum 3.9234258334793e+015
field min 1
field max 227472
statistic Basic.rack[14].node[8].app 	"End-to-End Delay"
field count 227472
field mean 1.1118177363316e-005
field stddev 9.3095959718004e-006
field sum 2.5290740411882
field sqrsum 4.7833281669632e-005
field min 4e-007
field max 0.000111285941
statistic Basic.rack[14].node[8].app 	hops
field count 227472
field mean 4.7988455722023
field stddev 1.4861955728733
field sum 1091603
field sqrsum 5740867
field min 2
field max 8
statistic Basic.rack[14].node[9].app 	throughput
field count 227180
field mean 113590.5
field stddev 65581.361414658
field sum 25805489790
field sqrsum 3.9083360488247e+015
field min 1
field max 227180
statistic Basic.rack[14].node[9].app 	"End-to-End Delay"
field count 227180
field mean 1.1119650060402e-005
field stddev 9.3364796524746e-006
field sum 2.526162100722
field sqrsum 4.7893198431783e-005
field min 4e-007
field max 0.000120561107
statistic Basic.rack[14].node[9].app 	hops
field count 227180
field mean 4.8056166916102
field stddev 1.4954640892722
field sum 1091740
field sqrsum 5754550
field min 2
field max 8
statistic Basic.rack[14].eps.queue[0] 	dropsum
field count 0
field mean nan
field stddev nan
field sum 0
field sqrsum 0
field min nan
field max nan
statistic Basic.rack[14].eps.queue[1] 	dropsum
field count 0
field mean nan
field stddev nan
field sum 0
field sqrsum 0
field min nan
field max nan
statistic Basic.rack[14].eps.queue[2] 	dropsum
field count 0
field mean nan
field stddev nan
field sum 0
field sqrsum 0
field min nan
field max nan
statistic Basic.rack[14].eps.queue[3] 	dropsum
field count 0
field mean nan
field stddev nan
field sum 0
field sqrsum 0
field min nan
field max nan
statistic Basic.rack[15].node[0].app 	throughput
field count 227925
field mean 113963
field stddev 65796.424389932
field sum 25975016775
field sqrsum 3.9469124573002e+015
field min 1
field max 227925
statistic Basic.rack[15].node[0].app 	"End-to-End Delay"
field count 227925
field mean 1.1065239288845e-005
field stddev 8.6956518468019e-006
field sum 2.5220446649101
field sqrsum 4.5141355340247e-005
field min 4e-007
field max 9.6368544e-005
statistic Basic.rack[15].node[0].app 	hops
field count 227925
field mean 4.3777777777778
field stddev 1.3090821167258
field sum 997805
field sqrsum 4758761
field min 2
field max 8
statistic Basic.rack[15].node[1].app 	throughput
field count 228572
field mean 114286.5
field stddev 65983.197202015
field sum 26122693878
field sqrsum 3.9806196309528e+015
field min 1
field max 228572
statistic Basic.rack[15].node[1].app 	"End-to-End Delay"
field count 228572
field mean 1.1064948964379e-005
field stddev 8.7027311550913e-006
field sum 2.5291375146861
field sqrsum 4.5296180392455e-005
field min 4e-007
field max 9.0960016e-005
statistic Basic.rack[15].node[1].app 	hops
field count 228572
field mean 4.3780778048055
field stddev 1.3125333505481
field sum 1000706
field sqrsum 4774938
field min 2
field max 11
statistic Basic.rack[15].node[2].app 	throughput
field count 226806
field mean 113403.5
field stddev 65473.396914319
field sum 25720594221
field sqrsum 3.8890653021235e+015
field min 1
field max 226806
statistic Basic.rack[15].node[2].app 	"End-to-End Delay"
field count 226806
field mean 1.1087397733958e-005
field stddev 8.7138937549855e-006
field sum 2.514688330448
field sqrsum 4.5103094340176e-005
field min 4e-007
field max 9.4035992e-005
statistic Basic.rack[15].node[2].app 	hops
field count 226806
field mean 4.3771549253547
field stddev 1.3126036968995
field sum 992765
field sqrsum 4736255
field min 2
field max 8
statistic Basic.rack[15].node[3].app 	throughput
field count 227866
field mean 113933.5
field stddev 65779.392556991
field sum 25961570911
field sqrsum 3.9438481986609e+015
field min 1
field max 227866
statistic Basic.rack[15].node[3].app 	"End-to-End Delay"
field count 227866
field mean 1.1082015926132e-005
field stddev 8.7089967900364e-006
field sum 2.525214641024
field sqrsum 4.5267260094604e-005
field min 4e-007
field max 0.000102468694
statistic Basic.rack[15].node[3].app 	hops
field count 227866
field mean 4.3702526923718
field stddev 1.310936664211
field sum 995832
field sqrsum 4743636
field min 2
field max 8
statistic Basic.rack[15].node[4].app 	throughput
field count 227992
field mean 113996.5
field stddev 65815.76562395
field sum 25990290028
field sqrsum 3.9503941328059e+015
field min 1
field max 227992
statistic Basic.rack[15].node[4].app 	"End-to-End Delay"
field count 227992
field mean 1.1040869594253e-005
field stddev 8.6813699459837e-006
field sum 2.517229940533
field sqrsum 4.4975219200216e-005
field min 4e-007
field max 0.000100641324
statistic Basic.rack[15].node[4].app 	hops
field count 227992
field mean 4.3752456226534
field stddev 1.3122284326174
field sum 997521
field sqrsum 4756987
field min 2
field max 9
statistic Basic.rack[15].node[5].app 	throughput
field count 227408
field mean 113704.5
field stddev 65647.179345346
field sum 25857312936
field sqrsum 3.9201151658709e+015
field min 1
field max 227408
statistic Basic.rack[15].node[5].app 	"End-to-End Delay"
field count 227408
field mean 1.1093777521151e-005
field stddev 8.6877446232099e-006
field sum 2.52281375853
field sqrsum 4.5151511472285e-005
field min 4e-007
field max 9.3122985e-005
statistic Basic.rack[15].node[5].app 	hops
field count 227408
field mean 4.3702332371772
field stddev 1.3066143755487
field sum 993826
field sqrsum 4731490
field min 2
field max 9
statistic Basic.rack[15].node[6].app 	throughput
field count 227390
field mean 113695.5
field stddev 65641.983192923
field sum 25853219745
field sqrsum 3.9191843762836e+015
field min 1
field max 227390
statistic Basic.rack[15].node[6].app 	"End-to-End Delay"
field count 227390
field mean 1.1049587866208e-005
field stddev 8.7001691025679e-006
field sum 2.512565784897
field sqrsum 4.497455889226e-005
field min 4e-007
field max 9.4580905e-005
statistic Basic.rack[15].node[6].app 	hops
field count 227390
field mean 4.3732530014513
field stddev 1.311278855605
field sum 994434
field sqrsum 4739896
field min 2
field max 9
statistic Basic.rack[15].node[7].app 	throughput
field count 228191
field mean 114096
field stddev 65873.211975734
field sum 26035680336
field sqrsum 3.9607472995949e+015
field min 1
field max 228191
statistic Basic.rack[15].node[7].app 	"End-to-End Delay"
field count 228191
field mean 1.1060081117091e-005
field stddev 8.6916405052462e-006
field sum 2.5238109701901
field sqrsum 4.5152079676609e-005
field min 4e-007
field max 9.5072306e-005
statistic Basic.rack[15].node[7].app 	hops
field count 228191
field mean 4.3718420095446
field stddev 1.3115729661055
field sum 997615
field sqrsum 4753953
field min 2
field max 8
statistic Basic.rack[15].node[8].app 	throughput
field count 227203
field mean 113602
field stddev 65588.000942754
field sum 25810715206
field sqrsum 3.9095232215376e+015
field min 1
field max 227203
statistic Basic.rack[15].node[8].app 	"End-to-End Delay"
field count 227203
field mean 1.1088646826904e-005
field stddev 8.7011241876286e-006
field sum 2.519373825013
field sqrsum 4.5137810505243e-005
field min 4e-007
field max 9.3547611e-005
statistic Basic.rack[15].node[8].app 	hops
field count 227203
field mean 4.3746121310018
field stddev 1.3109392137817
field sum 993925
field sqrsum 4738497
field min 2
field max 9
statistic Basic.rack[15].node[9].app 	throughput
field count 227725
field mean 113863
field stddev 65738.689363013
field sum 25929451675
field sqrsum 3.9365315649435e+015
field min 1
field max 227725
statistic Basic.rack[15].node[9].app 	"End-to-End Delay"
field count 227725
field mean 1.1070289158015e-005
field stddev 8.6932763445632e-006
field sum 2.5209815985091
field sqrsum 4.5117793316207e-005
field min 4e-007
field max 8.7203356e-005
statistic Basic.rack[15].node[9].app 	hops
field count 227725
field mean 4.3737402568888
field stddev 1.3107771440505
field sum 996010
field sqrsum 4747550
field min 2
field max 8
statistic Basic.rack[15].eps.queue[0] 	dropsum
field count 0
field mean nan
field stddev nan
field sum 0
field sqrsum 0
field min nan
field max nan
statistic Basic.rack[15].eps.queue[1] 	dropsum
field count 0
field mean nan
field stddev nan
field sum 0
field sqrsum 0
field min nan
field max nan
statistic Basic.rack[15].eps.queue[2] 	dropsum
field count 0
field mean nan
field stddev nan
field sum 0
field sqrsum 0
field min nan
field max nan
statistic Basic.rack[15].eps.queue[3] 	dropsum
field count 0
field mean nan
field stddev nan
field sum 0
field sqrsum 0
field min nan
field max nan
